LAMMPS (7 Feb 2024 - Development - patch_7Feb2024_update1-197-g554f53decb)
package omp 0
using multi-threaded neighbor list subroutines
clear
package omp 0
using multi-threaded neighbor list subroutines
units metal
dimension 3
boundary p p p

# Atom definition
atom_style atomic
atom_modify map array

read_data W2B5-P6_3-mmc.lmpstr
Reading data file ...
  triclinic box = (0 0 0) to (3.0171 2.6128852 15.7082) with tilt (-1.50855 0 0)
  reading atoms ...
  14 atoms
replicate 2 2 5
Replication is creating a 2x2x5 = 20 times larger system...
  triclinic box = (0 0 0) to (6.0342 5.2257705 78.541) with tilt (-3.0171 0 0)
  280 atoms
  replicate CPU = 0.001 seconds

# Define mass and interactions (from lit.)
pair_style tersoff
pair_coeff * * WB.tersoff W B

# Neighbors and thermo settings
neighbor 2.0 bin
neigh_modify delay 1 check yes

compute eng all pe/atom
compute eatoms all reduce sum c_eng

reset_timestep 0
# The vmax keyword can be used to limit the fractional change in the
# volume of the simulation box that can occur in one iteration of the
# minimizer. If the pressure is not settling down during the
# minimization this can be because the volume is fluctuating too much.
# The specified fraction must be greater than 0.0 and should be << 1.0.
fix box_relax all box/relax aniso 0.0 vmax 0.001

# Set the thermo style to collect data every 10 time steps
thermo 10
thermo_style custom step pe vol press cella cellc c_eatoms

# Dump command to visualize in OVITO
dump 1 all atom 10 dump.W2B5_min.lammpstrj

# Minimisation algorithms:
#   cg = Conjugate Gradient
#   sd = Steepest Descent
# Typically, steepest descent will not converge as quickly as CG, but may
# be more robust in some situations.

# Run energy minimisation algorithms. Use multiple to guarantee a stable
# phase. Minimize args:
#   etol(stop tolerance: energy)
#   ftol(stop tolerance: force)
#   maxiter(max iters of minimiser)
#   maxeval(max # of F/E calcs)

min_style cg
minimize 1.0e-4 1.0e-6 1000 10000
Last active /omp style is pair_style tersoff/omp
 (src/min.cpp:219)
Step         PotEng         Volume         Press          Cella          Cellc         c_eatoms
0   4755.8262      2476.6604      6874925.9      6.0342         78.541         4755.8262
Averages over the last 51 of 101 rows, steps 500 to 1000:
PotEng Volume Press Cella Cellc c_eatoms
-238.13 6517.45 33009.9 7.42089 137.328 -238.13
Loop time of 1.4312 on 6 procs for 1000 steps with 280 atoms

Minimization stats:
  Stopping criterion = max iterations
  Energy initial, next-to-last, final =
  Force two-norm initial, final = 18715.652 384.87832
  Force max component initial, final = 13386.221 235.69753
  Final line search alpha, max atom move = 4.2187577e-06 0.00099435078
  Iterations, force evaluations = 1000 1000

min_style sd
minimize 1.0e-4 1.0e-6 1000 10000
Last active /omp style is pair_style tersoff/omp
 (src/min.cpp:219)
Step         PotEng         Volume         Press          Cella          Cellc         c_eatoms
1000  -414.35334      5646.6903     -12304.414      6.4672791      155.89095     -414.35334
Averages over the last 51 of 101 rows, steps 1500 to 2000:
PotEng Volume Press Cella Cellc c_eatoms
-591.876 7140.62 19230.9 5.56859 266.63 -591.876
Loop time of 0.678557 on 6 procs for 1000 steps with 280 atoms

Minimization stats:
  Stopping criterion = max iterations
  Energy initial, next-to-last, final =
  Force two-norm initial, final = 519.28011 215.48874
  Force max component initial, final = 375.12645 173.69176
  Final line search alpha, max atom move = 5.7535707e-06 0.00099934783
  Iterations, force evaluations = 1000 1000

# min_style cg
# minimize 1.0e-4 1.0e-6 1000 10000
# min_style cg
# minimize 1.0e-4 1.0e-6 1000 10000

unfix box_relax

# Divide sim box by periodic multiple
variable        a equal cella/2
variable        b equal cellb/2
variable        c equal cellc/5

variable        natoms equal "count(all)"
variable        teng equal "c_eatoms"
variable        ecoh equal "v_teng/v_natoms"

LA: 2.70364365290375
LB: 2.70364373664659
LC: 61.120562911593
COHENERGY: -2.36360634746135

# ELASTIC CONSTANT

include in.init.mod
# NOTE: This script can be modified for different atomic structures,
# units, etc. See in.elastic for more info.

# Define the finite deformation size. Try several values of this
# variable to verify that results do not depend on it.
variable up equal 1.0e-6

# Define the amount of random jiggle for atoms
# This prevents atoms from staying on saddle points
variable atomjiggle equal 1.0e-5

# Uncomment one of these blocks, depending on what units
# you are using in LAMMPS and for output

# metal units, elastic constants in eV/A^3
#units		metal
#variable cfac equal 6.2414e-7
#variable cunits string eV/A^3

# metal units, elastic constants in GPa
# units	metal already defined earlier
variable cfac equal 1.0e-4
variable cunits string GPa

# real units, elastic constants in GPa
#units		real
#variable cfac equal 1.01325e-4
#variable cunits string GPa

# Define minimization parameters
variable etol equal 0.0
variable ftol equal 1.0e-10
variable maxiter equal 100
variable maxeval equal 1000
variable dmax equal 1.0e-2

# boundary p p p already defined earlier

# read_data WB2_P6.lmp defined earlier
include in.potential.mod
# NOTE: This script can be modified for different pair styles
# See in.elastic for more info.

# Choose potential
pair_style tersoff
pair_coeff * * WB.tersoff W B

# Setup neighbor style
neighbor 1.0 nsq
neigh_modify once no every 1 delay 0 check yes

# Setup minimization style
min_style	cg
min_modify dmax 0.01 line quadratic

# Setup output
thermo 1
thermo_style custom step temp pe press pxx pyy pzz pxy pxz pyz lx ly lz vol
thermo_modify norm no

dump 2 all atom 10 dump.W2B5_elastic.lammpstrj

# Compute initial state
fix 3 all box/relax aniso 1.0
minimize 0 1e-10 100 1000
Last active /omp style is pair_style tersoff/omp
 (src/min.cpp:219)
Step          Temp          PotEng         Press           Pxx            Pyy            Pzz            Pxy            Pxz            Pyz             Lx             Ly             Lz           Volume
2000   0             -661.80978      21790.133     -2563.9757     -2564.005       70498.379     -0.0036934092   6.2052638e-09 -4.6454888e-09  5.4072873      4.6828483      305.60281      7738.3236
Loop time of 0.0831014 on 6 procs for 100 steps with 280 atoms

Minimization stats:
  Stopping criterion = max iterations
  Energy initial, next-to-last, final =
  Force two-norm initial, final = 363.41568 357.48254
  Force max component initial, final = 340.49403 334.41305
  Final line search alpha, max atom move = 2.9897769e-07 9.9982041e-05
  Iterations, force evaluations = 100 100

variable tmp equal pxx
variable pxx0 equal -3932.02000466424
variable tmp equal pyy
variable pyy0 equal -3932.05058213205
variable tmp equal pzz
variable pzz0 equal 69304.6585775435
variable tmp equal pyz
variable pyz0 equal 4.02393402556162e-10
variable tmp equal pxz
variable pxz0 equal -7.27515608244655e-10
variable tmp equal pxy
variable pxy0 equal -0.00615834163091032

variable tmp equal lx
variable lx0 equal 5.40473882745895
variable tmp equal ly
variable ly0 equal 4.6806412501908
variable tmp equal lz
variable lz0 equal 308.658842703544

# These formulas define the derivatives w.r.t. strain components
# Constants uses $, variables use v_
variable d1 equal -(v_pxx1--3932.02000466424)/(v_delta/v_len0)*0.0001
variable d2 equal -(v_pyy1--3932.05058213205)/(v_delta/v_len0)*0.0001
variable d3 equal -(v_pzz1-69304.6585775435)/(v_delta/v_len0)*0.0001
variable d4 equal -(v_pyz1-4.02393402556162e-10)/(v_delta/v_len0)*0.0001
variable d5 equal -(v_pxz1--7.27515608244655e-10)/(v_delta/v_len0)*0.0001
variable d6 equal -(v_pxy1--0.00615834163091032)/(v_delta/v_len0)*0.0001

displace_atoms all random 1e-05 1e-05 1e-05 87287 units box
Displacing atoms ...

# Write restart
unfix 3
write_restart restart.equil
System init for write_restart ...
Last active /omp style is pair_style tersoff/omp

variable dir equal 1
include in.displace.mod
# NOTE: This script should not need to be
# modified. See in.elastic for more info.
#
# Find which reference length to use

variable len0 equal 5.40473882745895

# Reset box and simulation parameters

clear
package omp 0
using multi-threaded neighbor list subroutines
box tilt large

The 'box' command has been removed and will be ignored

read_restart restart.equil
Reading restart file ...
  restart file = 7 Feb 2024, LAMMPS = 7 Feb 2024
  restoring atom style atomic from restart
  triclinic box = (0.31473059 0.27256462 -115.05892) to (5.7194694 4.9532059 193.59992) with tilt (-2.7023695 0 0)
  pair style tersoff stores no restart info
  280 atoms
  read_restart CPU = 0.000 seconds
include in.potential.mod
# NOTE: This script can be modified for different pair styles
# See in.elastic for more info.

# Choose potential
pair_style tersoff
pair_coeff * * WB.tersoff W B

# Setup neighbor style
neighbor 1.0 nsq
neigh_modify once no every 1 delay 0 check yes

# Setup minimization style
min_style	cg
min_modify dmax 0.01 line quadratic

# Setup output
thermo 1
thermo_style custom step temp pe press pxx pyy pzz pxy pxz pyz lx ly lz vol
thermo_modify norm no

dump 2 all atom 10 dump.W2B5_elastic.lammpstrj

# Negative deformation

variable delta equal -1e-06*5.40473882745895
variable deltaxy equal -1e-06*xy
variable deltaxz equal -1e-06*xz
variable deltayz equal -1e-06*yz
change_box all x delta 0 -5.40473882745895e-06 xy delta 2.70236948577776e-06 xz delta -0 remap units box
Changing box ...
  triclinic box = (0.31473059 0.27256462 -115.05892) to (5.719464 4.9532059 193.59992) with tilt (-2.7023695 0 0)
  triclinic box = (0.31473059 0.27256462 -115.05892) to (5.719464 4.9532059 193.59992) with tilt (-2.7023668 0 0)
  triclinic box = (0.31473059 0.27256462 -115.05892) to (5.719464 4.9532059 193.59992) with tilt (-2.7023668 0 0)

# Relax atoms positions

minimize 0 1e-10 100 1000
Last active /omp style is pair_style tersoff/omp
Step          Temp          PotEng         Press           Pxx            Pyy            Pzz            Pxy            Pxz            Pyz             Lx             Ly             Lz           Volume
2100   0             -665.65825      20481.316     -3930.3555     -3930.8648      69305.169     -0.028060436    0.12076242     0.61106251     5.4047334      4.6806413      308.65884      7808.3336
Loop time of 0.0815266 on 6 procs for 74 steps with 280 atoms

Minimization stats:
  Stopping criterion = force tolerance
  Energy initial, next-to-last, final =
  Force two-norm initial, final = 123.39559 9.8330948e-11
  Force max component initial, final = 13.796875 1.7077895e-11
  Final line search alpha, max atom move = 1 1.7077895e-11
  Iterations, force evaluations = 74 134

# Obtain new stress tensor

variable tmp equal pxx
variable pxx1 equal -40992.765832705
variable tmp equal pyy
variable pyy1 equal -40993.2262877062
variable tmp equal pzz
variable pzz1 equal 2.26127822999058e-09
variable tmp equal pxy
variable pxy1 equal 0.00345180725516871
variable tmp equal pxz
variable pxz1 equal 1.18458321203568e-08
variable tmp equal pyz
variable pyz1 equal 6.81153571277625e-09

# Compute elastic constant from pressure tensor

variable C1neg equal -3706074.58280408
variable C2neg equal -3706117.57055742
variable C3neg equal -6930465.85775412
variable C4neg equal 6.40914231022009e-07
variable C5neg equal 1.25733477286015e-06
variable C6neg equal 0.961014888607903

# Reset box and simulation parameters

clear
package omp 0
using multi-threaded neighbor list subroutines
box tilt large

The 'box' command has been removed and will be ignored

read_restart restart.equil
Reading restart file ...
  restart file = 7 Feb 2024, LAMMPS = 7 Feb 2024
  restoring atom style atomic from restart
  triclinic box = (0.31473059 0.27256462 -115.05892) to (5.7194694 4.9532059 193.59992) with tilt (-2.7023695 0 0)
  pair style tersoff stores no restart info
  280 atoms
  read_restart CPU = 0.000 seconds
include in.potential.mod
# NOTE: This script can be modified for different pair styles
# See in.elastic for more info.

# Choose potential
pair_style tersoff
pair_coeff * * WB.tersoff W B

# Setup neighbor style
neighbor 1.0 nsq
neigh_modify once no every 1 delay 0 check yes

# Setup minimization style
min_style	cg
min_modify dmax 0.01 line quadratic

# Setup output
thermo 1
thermo_style custom step temp pe press pxx pyy pzz pxy pxz pyz lx ly lz vol
thermo_modify norm no

dump 2 all atom 10 dump.W2B5_elastic.lammpstrj

# Positive deformation

variable delta equal 1e-06*5.40473882745895
variable deltaxy equal 1e-06*xy
variable deltaxz equal 1e-06*xz
variable deltayz equal 1e-06*yz
change_box all x delta 0 5.40473882745895e-06 xy delta -2.70236948577776e-06 xz delta 0 remap units box
Changing box ...
  triclinic box = (0.31473059 0.27256462 -115.05892) to (5.7194748 4.9532059 193.59992) with tilt (-2.7023695 0 0)
  triclinic box = (0.31473059 0.27256462 -115.05892) to (5.7194748 4.9532059 193.59992) with tilt (-2.7023722 0 0)
  triclinic box = (0.31473059 0.27256462 -115.05892) to (5.7194748 4.9532059 193.59992) with tilt (-2.7023722 0 0)

# Relax atoms positions

minimize 0 1e-10 100 1000
Last active /omp style is pair_style tersoff/omp
Step          Temp          PotEng         Press           Pxx            Pyy            Pzz            Pxy            Pxz            Pyz             Lx             Ly             Lz           Volume
2100   0             -665.65821      20480.171     -3932.3001     -3931.8502      69304.665     -0.028062566    0.12076177     0.61105877     5.4047442      4.6806413      308.65884      7808.3492
Loop time of 0.0406703 on 6 procs for 41 steps with 280 atoms

Minimization stats:
  Stopping criterion = force tolerance
  Energy initial, next-to-last, final =
  Force two-norm initial, final = 123.39494 8.3107603e-11
  Force max component initial, final = 13.796802 1.8925306e-11
  Final line search alpha, max atom move = 1 1.8925306e-11
  Iterations, force evaluations = 41 68

# Obtain new stress tensor

variable tmp equal pe
variable e1 equal -743.205432657443
variable tmp equal press
variable p1 equal -27329.5550467401
variable tmp equal pxx
variable pxx1 equal -40994.550836587
variable tmp equal pyy
variable pyy1 equal -40994.1143036224
variable tmp equal pzz
variable pzz1 equal -1.08971914087968e-08
variable tmp equal pxy
variable pxy1 equal 0.00345185837643126
variable tmp equal pxz
variable pxz1 equal 3.77306391162516e-10
variable tmp equal pyz
variable pyz1 equal 7.77745286783645e-11

# Compute elastic constant from pressure tensor

variable C1pos equal 3706253.08319228
variable C2pos equal 3706206.37214904
variable C3pos equal 6930465.85775544
variable C4pos equal 3.24618873877797e-08
variable C5pos equal -1.10482199940717e-07
variable C6pos equal -0.961020000734158

# Combine positive and negative

variable C11 equal 0.5*(-3706074.58280408+3706253.08319228)
variable C21 equal 0.5*(-3706117.57055742+3706206.37214904)
variable C31 equal 0.5*(-6930465.85775412+6930465.85775544)
variable C41 equal 0.5*(6.40914231022009e-07+3.24618873877797e-08)
variable C51 equal 0.5*(1.25733477286015e-06+-1.10482199940717e-07)
variable C61 equal 0.5*(0.961014888607903+-0.961020000734158)

# Delete dir to make sure it is not reused

variable dir delete

# uyy Perturbation
variable dir equal 2
include in.displace.mod
# NOTE: This script should not need to be
# modified. See in.elastic for more info.
#
# Find which reference length to use

variable len0 equal 4.6806412501908

# Reset box and simulation parameters

clear
package omp 0
using multi-threaded neighbor list subroutines
box tilt large

The 'box' command has been removed and will be ignored

read_restart restart.equil
Reading restart file ...
  restart file = 7 Feb 2024, LAMMPS = 7 Feb 2024
  restoring atom style atomic from restart
  triclinic box = (0.31473059 0.27256462 -115.05892) to (5.7194694 4.9532059 193.59992) with tilt (-2.7023695 0 0)
  pair style tersoff stores no restart info
  280 atoms
  read_restart CPU = 0.000 seconds
include in.potential.mod
# NOTE: This script can be modified for different pair styles
# See in.elastic for more info.

# Choose potential
pair_style tersoff
pair_coeff * * WB.tersoff W B

# Setup neighbor style
neighbor 1.0 nsq
neigh_modify once no every 1 delay 0 check yes

# Setup minimization style
min_style	cg
min_modify dmax 0.01 line quadratic

# Setup output
thermo 1
thermo_style custom step temp pe press pxx pyy pzz pxy pxz pyz lx ly lz vol
thermo_modify norm no

dump 2 all atom 10 dump.W2B5_elastic.lammpstrj

# Negative deformation

variable delta equal -1e-06*4.6806412501908
variable deltaxy equal -1e-06*xy
variable deltaxz equal -1e-06*xz
variable deltayz equal -1e-06*yz
change_box all y delta 0 -4.6806412501908e-06 yz delta -0 remap units box
Changing box ...
  triclinic box = (0.31473059 0.27256462 -115.05892) to (5.7194694 4.9532012 193.59992) with tilt (-2.7023695 0 0)
  triclinic box = (0.31473059 0.27256462 -115.05892) to (5.7194694 4.9532012 193.59992) with tilt (-2.7023695 0 0)

# Relax atoms positions

minimize 0 1e-10 100 1000
Last active /omp style is pair_style tersoff/omp
Step          Temp          PotEng         Press           Pxx            Pyy            Pzz            Pxy            Pxz            Pyz             Lx             Ly             Lz           Volume
2100   0             -665.65825      20481.316     -3930.8351     -3930.3852      69305.169     -0.028062511    0.12076241     0.61106203     5.4047388      4.6806366      308.65884      7808.3336
Loop time of 0.0459635 on 6 procs for 41 steps with 280 atoms

Minimization stats:
  Stopping criterion = force tolerance
  Energy initial, next-to-last, final =
  Force two-norm initial, final = 123.39559 9.830243e-11
  Force max component initial, final = 13.796875 1.7458035e-11
  Final line search alpha, max atom move = 1 1.7458035e-11
  Iterations, force evaluations = 41 68

# Obtain new stress tensor

variable tmp equal pxx
variable pxx1 equal -40993.2143284414
variable tmp equal pyy
variable pyy1 equal -40992.7777917223
variable tmp equal pzz
variable pzz1 equal 1.97304179796663e-08
variable tmp equal pxy
variable pxy1 equal 0.0034520010471504
variable tmp equal pxz
variable pxz1 equal -1.09346142649448e-09
variable tmp equal pyz
variable pyz1 equal -2.02946440757375e-09

# Compute elastic constant from pressure tensor

variable C1neg equal -3706119.43237772
variable C2neg equal -3706072.72095903
variable C3neg equal -6930465.85775238
variable C4neg equal -2.43185781012991e-07
variable C5neg equal -3.65945818249825e-08
variable C6neg equal 0.961034267806072

# Reset box and simulation parameters

clear
package omp 0
using multi-threaded neighbor list subroutines
box tilt large

The 'box' command has been removed and will be ignored

read_restart restart.equil
Reading restart file ...
  restart file = 7 Feb 2024, LAMMPS = 7 Feb 2024
  restoring atom style atomic from restart
  triclinic box = (0.31473059 0.27256462 -115.05892) to (5.7194694 4.9532059 193.59992) with tilt (-2.7023695 0 0)
  pair style tersoff stores no restart info
  280 atoms
  read_restart CPU = 0.000 seconds
include in.potential.mod
# NOTE: This script can be modified for different pair styles
# See in.elastic for more info.

# Choose potential
pair_style tersoff
pair_coeff * * WB.tersoff W B

# Setup neighbor style
neighbor 1.0 nsq
neigh_modify once no every 1 delay 0 check yes

# Setup minimization style
min_style	cg
min_modify dmax 0.01 line quadratic

# Setup output
thermo 1
thermo_style custom step temp pe press pxx pyy pzz pxy pxz pyz lx ly lz vol
thermo_modify norm no

dump 2 all atom 10 dump.W2B5_elastic.lammpstrj

# Positive deformation

variable delta equal 1e-06*4.6806412501908
variable deltaxy equal 1e-06*xy
variable deltaxz equal 1e-06*xz
variable deltayz equal 1e-06*yz
change_box all y delta 0 4.6806412501908e-06 yz delta 0 remap units box
Changing box ...
  triclinic box = (0.31473059 0.27256462 -115.05892) to (5.7194694 4.9532106 193.59992) with tilt (-2.7023695 0 0)
  triclinic box = (0.31473059 0.27256462 -115.05892) to (5.7194694 4.9532106 193.59992) with tilt (-2.7023695 0 0)

# Relax atoms positions

minimize 0 1e-10 100 1000
Last active /omp style is pair_style tersoff/omp
Step          Temp          PotEng         Press           Pxx            Pyy            Pzz            Pxy            Pxz            Pyz             Lx             Ly             Lz           Volume
2100   0             -665.65821      20480.171     -3931.8206     -3932.3298      69304.665     -0.028060503    0.12076178     0.61105924     5.4047388      4.6806459      308.65884      7808.3492
Loop time of 0.0437285 on 6 procs for 41 steps with 280 atoms

Minimization stats:
  Stopping criterion = force tolerance
  Energy initial, next-to-last, final =
  Force two-norm initial, final = 123.39494 6.6282388e-11
  Force max component initial, final = 13.796802 1.3010037e-11
  Final line search alpha, max atom move = 1 1.3010037e-11
  Iterations, force evaluations = 41 68

# Obtain new stress tensor

variable tmp equal pe
variable e1 equal -743.205432656354
variable tmp equal press
variable p1 equal -27329.5550464673
variable tmp equal pxx
variable pxx1 equal -40994.1023442861
variable tmp equal pyy
variable pyy1 equal -40994.5627950953
variable tmp equal pzz
variable pzz1 equal -2.04855943670021e-08
variable tmp equal pxy
variable pxy1 equal 0.00345168649766918
variable tmp equal pxz
variable pxz1 equal 1.48856251147315e-09
variable tmp equal pyz
variable pyz1 equal 7.23141043771479e-10

# Compute elastic constant from pressure tensor

variable C1pos equal 3706208.23396219
variable C2pos equal 3706251.22129633
variable C3pos equal 6930465.8577564
variable C4pos equal -3.20747641215317e-08
variable C5pos equal -2.21607811971781e-07
variable C6pos equal -0.96100281285795

# Combine positive and negative

variable C12 equal 0.5*(-3706119.43237772+3706208.23396219)
variable C22 equal 0.5*(-3706072.72095903+3706251.22129633)
variable C32 equal 0.5*(-6930465.85775238+6930465.8577564)
variable C42 equal 0.5*(-2.43185781012991e-07+-3.20747641215317e-08)
variable C52 equal 0.5*(-3.65945818249825e-08+-2.21607811971781e-07)
variable C62 equal 0.5*(0.961034267806072+-0.96100281285795)

# Delete dir to make sure it is not reused

variable dir delete

# uzz Perturbation
variable dir equal 3
include in.displace.mod
# NOTE: This script should not need to be
# modified. See in.elastic for more info.
#
# Find which reference length to use

variable len0 equal 308.658842703544

# Reset box and simulation parameters

clear
package omp 0
using multi-threaded neighbor list subroutines
box tilt large

The 'box' command has been removed and will be ignored

read_restart restart.equil
Reading restart file ...
  restart file = 7 Feb 2024, LAMMPS = 7 Feb 2024
  restoring atom style atomic from restart
  triclinic box = (0.31473059 0.27256462 -115.05892) to (5.7194694 4.9532059 193.59992) with tilt (-2.7023695 0 0)
  pair style tersoff stores no restart info
  280 atoms
  read_restart CPU = 0.000 seconds
include in.potential.mod
# NOTE: This script can be modified for different pair styles
# See in.elastic for more info.

# Choose potential
pair_style tersoff
pair_coeff * * WB.tersoff W B

# Setup neighbor style
neighbor 1.0 nsq
neigh_modify once no every 1 delay 0 check yes

# Setup minimization style
min_style	cg
min_modify dmax 0.01 line quadratic

# Setup output
thermo 1
thermo_style custom step temp pe press pxx pyy pzz pxy pxz pyz lx ly lz vol
thermo_modify norm no

dump 2 all atom 10 dump.W2B5_elastic.lammpstrj

# Negative deformation

variable delta equal -1e-06*308.658842703544
variable deltaxy equal -1e-06*xy
variable deltaxz equal -1e-06*xz
variable deltayz equal -1e-06*yz
change_box all z delta 0 -0.000308658842703544 remap units box
Changing box ...
  triclinic box = (0.31473059 0.27256462 -115.05892) to (5.7194694 4.9532059 193.59961) with tilt (-2.7023695 0 0)

# Relax atoms positions

minimize 0 1e-10 100 1000
Last active /omp style is pair_style tersoff/omp
Step          Temp          PotEng         Press           Pxx            Pyy            Pzz            Pxy            Pxz            Pyz             Lx             Ly             Lz           Volume
2100   0             -665.65789      20480.909     -3931.1487     -3931.1783      69305.055     -0.028060968    0.12076231     0.61106176     5.4047388      4.6806413      308.65853      7808.3336
Loop time of 0.0447443 on 6 procs for 41 steps with 280 atoms

Minimization stats:
  Stopping criterion = force tolerance
  Energy initial, next-to-last, final =
  Force two-norm initial, final = 123.39551 7.7100353e-11
  Force max component initial, final = 13.796866 1.5726517e-11
  Final line search alpha, max atom move = 1 1.5726517e-11
  Iterations, force evaluations = 41 68

# Obtain new stress tensor

variable tmp equal pxx
variable pxx1 equal -40993.6993326018
variable tmp equal pyy
variable pyy1 equal -40993.7112900156
variable tmp equal pzz
variable pzz1 equal -7.37187876248616e-09
variable tmp equal pxy
variable pxy1 equal 0.00345172750238708
variable tmp equal pxz
variable pxz1 equal -1.3856599587e-09
variable tmp equal pyz
variable pyz1 equal 2.2092258499751e-09

# Compute elastic constant from pressure tensor

variable C1neg equal -3706167.93279376
variable C2neg equal -3706166.07078836
variable C3neg equal -6930465.85775509
variable C4neg equal 1.80683244741894e-07
variable C5neg equal -6.58144350455345e-08
variable C6neg equal 0.96100691332974

# Reset box and simulation parameters

clear
package omp 0
using multi-threaded neighbor list subroutines
box tilt large

The 'box' command has been removed and will be ignored

read_restart restart.equil
Reading restart file ...
  restart file = 7 Feb 2024, LAMMPS = 7 Feb 2024
  restoring atom style atomic from restart
  triclinic box = (0.31473059 0.27256462 -115.05892) to (5.7194694 4.9532059 193.59992) with tilt (-2.7023695 0 0)
  pair style tersoff stores no restart info
  280 atoms
  read_restart CPU = 0.000 seconds
include in.potential.mod
# NOTE: This script can be modified for different pair styles
# See in.elastic for more info.

# Choose potential
pair_style tersoff
pair_coeff * * WB.tersoff W B

# Setup neighbor style
neighbor 1.0 nsq
neigh_modify once no every 1 delay 0 check yes

# Setup minimization style
min_style	cg
min_modify dmax 0.01 line quadratic

# Setup output
thermo 1
thermo_style custom step temp pe press pxx pyy pzz pxy pxz pyz lx ly lz vol
thermo_modify norm no

dump 2 all atom 10 dump.W2B5_elastic.lammpstrj

# Positive deformation

variable delta equal 1e-06*308.658842703544
variable deltaxy equal 1e-06*xy
variable deltaxz equal 1e-06*xz
variable deltayz equal 1e-06*yz
change_box all z delta 0 0.000308658842703544 remap units box
Changing box ...
  triclinic box = (0.31473059 0.27256462 -115.05892) to (5.7194694 4.9532059 193.60023) with tilt (-2.7023695 0 0)

# Relax atoms positions

minimize 0 1e-10 100 1000
Last active /omp style is pair_style tersoff/omp
Step          Temp          PotEng         Press           Pxx            Pyy            Pzz            Pxy            Pxz            Pyz             Lx             Ly             Lz           Volume
2100   0             -665.65857      20480.579     -3931.507      -3931.5367      69304.779     -0.02806203     0.12076186     0.61105952     5.4047388      4.6806413      308.65915      7808.3492
Loop time of 0.0432153 on 6 procs for 41 steps with 280 atoms

Minimization stats:
  Stopping criterion = force tolerance
  Energy initial, next-to-last, final =
  Force two-norm initial, final = 123.39502 6.8371871e-11
  Force max component initial, final = 13.796811 1.492495e-11
  Final line search alpha, max atom move = 1 1.492495e-11
  Iterations, force evaluations = 41 68

# Obtain new stress tensor

variable tmp equal pe
variable e1 equal -743.205632445032
variable tmp equal press
variable p1 equal -27329.0822159875
variable tmp equal pxx
variable pxx1 equal -40993.6173452863
variable tmp equal pyy
variable pyy1 equal -40993.629302677
variable tmp equal pzz
variable pzz1 equal 8.04060682725421e-10
variable tmp equal pxy
variable pxy1 equal 0.00345172121898305
variable tmp equal pxz
variable pxz1 equal -6.6422283058026e-10
variable tmp equal pyz
variable pyz1 equal 6.87690674036252e-10

# Compute elastic constant from pressure tensor

variable C1pos equal 3706159.73406221
variable C2pos equal 3706157.8720545
variable C3pos equal 6930465.85775427
variable C4pos equal -2.8529727148009e-08
variable C5pos equal -6.3292777664395e-09
variable C6pos equal -0.961006284989337

# Combine positive and negative

variable C13 equal 0.5*(-3706167.93279376+3706159.73406221)
variable C23 equal 0.5*(-3706166.07078836+3706157.8720545)
variable C33 equal 0.5*(-6930465.85775509+6930465.85775427)
variable C43 equal 0.5*(1.80683244741894e-07+-2.8529727148009e-08)
variable C53 equal 0.5*(-6.58144350455345e-08+-6.3292777664395e-09)
variable C63 equal 0.5*(0.96100691332974+-0.961006284989337)

# Delete dir to make sure it is not reused

variable dir delete

# uyz Perturbation
variable dir equal 4
include in.displace.mod
# NOTE: This script should not need to be
# modified. See in.elastic for more info.
#
# Find which reference length to use

variable len0 equal 308.658842703544

# Reset box and simulation parameters

clear
package omp 0
using multi-threaded neighbor list subroutines
box tilt large

The 'box' command has been removed and will be ignored

read_restart restart.equil
Reading restart file ...
  restart file = 7 Feb 2024, LAMMPS = 7 Feb 2024
  restoring atom style atomic from restart
  triclinic box = (0.31473059 0.27256462 -115.05892) to (5.7194694 4.9532059 193.59992) with tilt (-2.7023695 0 0)
  pair style tersoff stores no restart info
  280 atoms
  read_restart CPU = 0.000 seconds
include in.potential.mod
# NOTE: This script can be modified for different pair styles
# See in.elastic for more info.

# Choose potential
pair_style tersoff
pair_coeff * * WB.tersoff W B

# Setup neighbor style
neighbor 1.0 nsq
neigh_modify once no every 1 delay 0 check yes

# Setup minimization style
min_style	cg
min_modify dmax 0.01 line quadratic

# Setup output
thermo 1
thermo_style custom step temp pe press pxx pyy pzz pxy pxz pyz lx ly lz vol
thermo_modify norm no

dump 2 all atom 10 dump.W2B5_elastic.lammpstrj

# Negative deformation

variable delta equal -1e-06*308.658842703544
variable deltaxy equal -1e-06*xy
variable deltaxz equal -1e-06*xz
variable deltayz equal -1e-06*yz
change_box all yz delta -0.000308658842703544 remap units box
Changing box ...
  triclinic box = (0.31473059 0.27256462 -115.05892) to (5.7194694 4.9532059 193.59992) with tilt (-2.7023695 0 -0.00030865884)

# Relax atoms positions

minimize 0 1e-10 100 1000
Last active /omp style is pair_style tersoff/omp
Step          Temp          PotEng         Press           Pxx            Pyy            Pzz            Pxy            Pxz            Pyz             Lx             Ly             Lz           Volume
2100   0             -665.65823      20480.744     -3931.3278     -3931.3575      69304.917     -0.028061569    0.12076241     0.79332308     5.4047388      4.6806413      308.65884      7808.3414
Loop time of 0.0496926 on 6 procs for 41 steps with 280 atoms

Minimization stats:
  Stopping criterion = force tolerance
  Energy initial, next-to-last, final =
  Force two-norm initial, final = 123.39526 6.5905173e-11
  Force max component initial, final = 13.796839 1.1361578e-11
  Final line search alpha, max atom move = 1 1.1361578e-11
  Iterations, force evaluations = 41 68

# Obtain new stress tensor

variable tmp equal pxx
variable pxx1 equal -40993.6583389047
variable tmp equal pyy
variable pyy1 equal -40993.6702963078
variable tmp equal pzz
variable pzz1 equal 1.93228140355403e-08
variable tmp equal pxy
variable pxy1 equal 0.00345172381816827
variable tmp equal pxz
variable pxz1 equal 2.25769064297554e-09
variable tmp equal pyz
variable pyz1 equal 2.48269967191502e-09

# Compute elastic constant from pressure tensor

variable C1neg equal -3706163.83342405
variable C2neg equal -3706161.97141758
variable C3neg equal -6930465.85775242
variable C4neg equal 2.08030626935886e-07
variable C5neg equal 2.9852062512202e-07
variable C6neg equal 0.961006544907859

# Reset box and simulation parameters

clear
package omp 0
using multi-threaded neighbor list subroutines
box tilt large

The 'box' command has been removed and will be ignored

read_restart restart.equil
Reading restart file ...
  restart file = 7 Feb 2024, LAMMPS = 7 Feb 2024
  restoring atom style atomic from restart
  triclinic box = (0.31473059 0.27256462 -115.05892) to (5.7194694 4.9532059 193.59992) with tilt (-2.7023695 0 0)
  pair style tersoff stores no restart info
  280 atoms
  read_restart CPU = 0.000 seconds
include in.potential.mod
# NOTE: This script can be modified for different pair styles
# See in.elastic for more info.

# Choose potential
pair_style tersoff
pair_coeff * * WB.tersoff W B

# Setup neighbor style
neighbor 1.0 nsq
neigh_modify once no every 1 delay 0 check yes

# Setup minimization style
min_style	cg
min_modify dmax 0.01 line quadratic

# Setup output
thermo 1
thermo_style custom step temp pe press pxx pyy pzz pxy pxz pyz lx ly lz vol
thermo_modify norm no

dump 2 all atom 10 dump.W2B5_elastic.lammpstrj

# Positive deformation

variable delta equal 1e-06*308.658842703544
variable deltaxy equal 1e-06*xy
variable deltaxz equal 1e-06*xz
variable deltayz equal 1e-06*yz
change_box all yz delta 0.000308658842703544 remap units box
Changing box ...
  triclinic box = (0.31473059 0.27256462 -115.05892) to (5.7194694 4.9532059 193.59992) with tilt (-2.7023695 0 0.00030865884)

# Relax atoms positions

minimize 0 1e-10 100 1000
Last active /omp style is pair_style tersoff/omp
Step          Temp          PotEng         Press           Pxx            Pyy            Pzz            Pxy            Pxz            Pyz             Lx             Ly             Lz           Volume
2100   0             -665.65823      20480.744     -3931.3278     -3931.3575      69304.917     -0.028061461    0.12076177     0.4287982      5.4047388      4.6806413      308.65884      7808.3414
Loop time of 0.0477322 on 6 procs for 41 steps with 280 atoms

Minimization stats:
  Stopping criterion = force tolerance
  Energy initial, next-to-last, final =
  Force two-norm initial, final = 123.39526 6.4807729e-11
  Force max component initial, final = 13.796839 1.353978e-11
  Final line search alpha, max atom move = 1 1.353978e-11
  Iterations, force evaluations = 41 68

# Obtain new stress tensor

variable tmp equal pe
variable e1 equal -743.205632445029
variable tmp equal press
variable p1 equal -27329.1095450719
variable tmp equal pxx
variable pxx1 equal -40993.6583389022
variable tmp equal pyy
variable pyy1 equal -40993.6702963046
variable tmp equal pzz
variable pzz1 equal -8.98678599042095e-09
variable tmp equal pxy
variable pxy1 equal 0.00345172444584227
variable tmp equal pxz
variable pxz1 equal 1.44336763960362e-10
variable tmp equal pyz
variable pyz1 equal 4.26085043105211e-09

# Compute elastic constant from pressure tensor

variable C1pos equal 3706163.8334238
variable C2pos equal 3706161.97141726
variable C3pos equal 6930465.85775525
variable C4pos equal -3.85845702849595e-07
variable C5pos equal -8.71852372205017e-08
variable C6pos equal -0.961006607675259

# Combine positive and negative

variable C14 equal 0.5*(-3706163.83342405+3706163.8334238)
variable C24 equal 0.5*(-3706161.97141758+3706161.97141726)
variable C34 equal 0.5*(-6930465.85775242+6930465.85775525)
variable C44 equal 0.5*(2.08030626935886e-07+-3.85845702849595e-07)
variable C54 equal 0.5*(2.9852062512202e-07+-8.71852372205017e-08)
variable C64 equal 0.5*(0.961006544907859+-0.961006607675259)

# Delete dir to make sure it is not reused

variable dir delete

# uxz Perturbation
variable dir equal 5
include in.displace.mod
# NOTE: This script should not need to be
# modified. See in.elastic for more info.
#
# Find which reference length to use

variable len0 equal 308.658842703544

# Reset box and simulation parameters

clear
package omp 0
using multi-threaded neighbor list subroutines
box tilt large

The 'box' command has been removed and will be ignored

read_restart restart.equil
Reading restart file ...
  restart file = 7 Feb 2024, LAMMPS = 7 Feb 2024
  restoring atom style atomic from restart
  triclinic box = (0.31473059 0.27256462 -115.05892) to (5.7194694 4.9532059 193.59992) with tilt (-2.7023695 0 0)
  pair style tersoff stores no restart info
  280 atoms
  read_restart CPU = 0.000 seconds
include in.potential.mod
# NOTE: This script can be modified for different pair styles
# See in.elastic for more info.

# Choose potential
pair_style tersoff
pair_coeff * * WB.tersoff W B

# Setup neighbor style
neighbor 1.0 nsq
neigh_modify once no every 1 delay 0 check yes

# Setup minimization style
min_style	cg
min_modify dmax 0.01 line quadratic

# Setup output
thermo 1
thermo_style custom step temp pe press pxx pyy pzz pxy pxz pyz lx ly lz vol
thermo_modify norm no

dump 2 all atom 10 dump.W2B5_elastic.lammpstrj

# Negative deformation

variable delta equal -1e-06*308.658842703544
variable deltaxy equal -1e-06*xy
variable deltaxz equal -1e-06*xz
variable deltayz equal -1e-06*yz
change_box all xz delta -0.000308658842703544 remap units box
Changing box ...
  triclinic box = (0.31473059 0.27256462 -115.05892) to (5.7194694 4.9532059 193.59992) with tilt (-2.7023695 -0.00030865884 0)

# Relax atoms positions

minimize 0 1e-10 100 1000
Last active /omp style is pair_style tersoff/omp
Step          Temp          PotEng         Press           Pxx            Pyy            Pzz            Pxy            Pxz            Pyz             Lx             Ly             Lz           Volume
2100   0             -665.65823      20480.744     -3931.3278     -3931.3575      69304.917     -0.028061542    0.30302437     0.61106095     5.4047388      4.6806413      308.65884      7808.3414
Loop time of 0.0392447 on 6 procs for 41 steps with 280 atoms

Minimization stats:
  Stopping criterion = force tolerance
  Energy initial, next-to-last, final =
  Force two-norm initial, final = 123.39526 6.3182852e-11
  Force max component initial, final = 13.796839 1.3077539e-11
  Final line search alpha, max atom move = 1 1.3077539e-11
  Iterations, force evaluations = 41 68

# Obtain new stress tensor

variable tmp equal pxx
variable pxx1 equal -40993.6583389041
variable tmp equal pyy
variable pyy1 equal -40993.6702963064
variable tmp equal pzz
variable pzz1 equal 2.13281803704145e-09
variable tmp equal pxy
variable pxy1 equal 0.00345172496824152
variable tmp equal pxz
variable pxz1 equal -6.9258259415749e-10
variable tmp equal pyz
variable pyz1 equal 3.07577372860747e-09

# Compute elastic constant from pressure tensor

variable C1neg equal -3706163.83342399
variable C2neg equal -3706161.97141744
variable C3neg equal -6930465.85775414
variable C4neg equal 2.67338032605131e-07
variable C5neg equal 3.4933014087165e-09
variable C6neg equal 0.961006659915184

# Reset box and simulation parameters

clear
package omp 0
using multi-threaded neighbor list subroutines
box tilt large

The 'box' command has been removed and will be ignored

read_restart restart.equil
Reading restart file ...
  restart file = 7 Feb 2024, LAMMPS = 7 Feb 2024
  restoring atom style atomic from restart
  triclinic box = (0.31473059 0.27256462 -115.05892) to (5.7194694 4.9532059 193.59992) with tilt (-2.7023695 0 0)
  pair style tersoff stores no restart info
  280 atoms
  read_restart CPU = 0.000 seconds
include in.potential.mod
# NOTE: This script can be modified for different pair styles
# See in.elastic for more info.

# Choose potential
pair_style tersoff
pair_coeff * * WB.tersoff W B

# Setup neighbor style
neighbor 1.0 nsq
neigh_modify once no every 1 delay 0 check yes

# Setup minimization style
min_style	cg
min_modify dmax 0.01 line quadratic

# Setup output
thermo 1
thermo_style custom step temp pe press pxx pyy pzz pxy pxz pyz lx ly lz vol
thermo_modify norm no

dump 2 all atom 10 dump.W2B5_elastic.lammpstrj

# Positive deformation

variable delta equal 1e-06*308.658842703544
variable deltaxy equal 1e-06*xy
variable deltaxz equal 1e-06*xz
variable deltayz equal 1e-06*yz
change_box all xz delta 0.000308658842703544 remap units box
Changing box ...
  triclinic box = (0.31473059 0.27256462 -115.05892) to (5.7194694 4.9532059 193.59992) with tilt (-2.7023695 0.00030865884 0)

# Relax atoms positions

minimize 0 1e-10 100 1000
Last active /omp style is pair_style tersoff/omp
Step          Temp          PotEng         Press           Pxx            Pyy            Pzz            Pxy            Pxz            Pyz             Lx             Ly             Lz           Volume
2100   0             -665.65823      20480.744     -3931.3278     -3931.3575      69304.917     -0.028061476   -0.061500189    0.61106032     5.4047388      4.6806413      308.65884      7808.3414
Loop time of 0.0383715 on 6 procs for 41 steps with 280 atoms

Minimization stats:
  Stopping criterion = force tolerance
  Energy initial, next-to-last, final =
  Force two-norm initial, final = 123.39526 7.2470573e-11
  Force max component initial, final = 13.796839 1.3208989e-11
  Final line search alpha, max atom move = 1 1.3208989e-11
  Iterations, force evaluations = 41 68

# Obtain new stress tensor

variable tmp equal pe
variable e1 equal -743.205632445031
variable tmp equal press
variable p1 equal -27329.1095450675
variable tmp equal pxx
variable pxx1 equal -40993.6583389024
variable tmp equal pyy
variable pyy1 equal -40993.6702963067
variable tmp equal pzz
variable pzz1 equal 6.53169943659563e-09
variable tmp equal pxy
variable pxy1 equal 0.00345172341468283
variable tmp equal pxz
variable pxz1 equal -9.09066805807266e-10
variable tmp equal pyz
variable pyz1 equal 3.73940605092589e-09

# Compute elastic constant from pressure tensor

variable C1pos equal 3706163.83342382
variable C2pos equal 3706161.97141747
variable C3pos equal 6930465.8577537
variable C4pos equal -3.33701264836973e-07
variable C5pos equal 1.81551197562611e-08
variable C6pos equal -0.961006504559315

# Combine positive and negative

variable C15 equal 0.5*(-3706163.83342399+3706163.83342382)
variable C25 equal 0.5*(-3706161.97141744+3706161.97141747)
variable C35 equal 0.5*(-6930465.85775414+6930465.8577537)
variable C45 equal 0.5*(2.67338032605131e-07+-3.33701264836973e-07)
variable C55 equal 0.5*(3.4933014087165e-09+1.81551197562611e-08)
variable C65 equal 0.5*(0.961006659915184+-0.961006504559315)

# Delete dir to make sure it is not reused

variable dir delete

# uxy Perturbation
variable dir equal 6
include in.displace.mod
# NOTE: This script should not need to be
# modified. See in.elastic for more info.
#
# Find which reference length to use

variable len0 equal 4.6806412501908

# Reset box and simulation parameters

clear
package omp 0
using multi-threaded neighbor list subroutines
box tilt large

The 'box' command has been removed and will be ignored

read_restart restart.equil
Reading restart file ...
  restart file = 7 Feb 2024, LAMMPS = 7 Feb 2024
  restoring atom style atomic from restart
  triclinic box = (0.31473059 0.27256462 -115.05892) to (5.7194694 4.9532059 193.59992) with tilt (-2.7023695 0 0)
  pair style tersoff stores no restart info
  280 atoms
  read_restart CPU = 0.000 seconds
include in.potential.mod
# NOTE: This script can be modified for different pair styles
# See in.elastic for more info.

# Choose potential
pair_style tersoff
pair_coeff * * WB.tersoff W B

# Setup neighbor style
neighbor 1.0 nsq
neigh_modify once no every 1 delay 0 check yes

# Setup minimization style
min_style	cg
min_modify dmax 0.01 line quadratic

# Setup output
thermo 1
thermo_style custom step temp pe press pxx pyy pzz pxy pxz pyz lx ly lz vol
thermo_modify norm no

dump 2 all atom 10 dump.W2B5_elastic.lammpstrj

# Negative deformation

variable delta equal -1e-06*4.6806412501908
variable deltaxy equal -1e-06*xy
variable deltaxz equal -1e-06*xz
variable deltayz equal -1e-06*yz
change_box all xy delta -4.6806412501908e-06 remap units box
Changing box ...
  triclinic box = (0.31473059 0.27256462 -115.05892) to (5.7194694 4.9532059 193.59992) with tilt (-2.7023742 0 0)

# Relax atoms positions

minimize 0 1e-10 100 1000
Last active /omp style is pair_style tersoff/omp
Step          Temp          PotEng         Press           Pxx            Pyy            Pzz            Pxy            Pxz            Pyz             Lx             Ly             Lz           Volume
2100   0             -665.65823      20480.744     -3931.3278     -3931.3575      69304.917      0.21172797     0.12076205     0.61106071     5.4047388      4.6806413      308.65884      7808.3414
Loop time of 0.111556 on 6 procs for 100 steps with 280 atoms

Minimization stats:
  Stopping criterion = max iterations
  Energy initial, next-to-last, final =
  Force two-norm initial, final = 123.39526 1.7006324e-10
  Force max component initial, final = 13.796839 1.9552929e-11
  Final line search alpha, max atom move = 1 1.9552929e-11
  Iterations, force evaluations = 100 186

# Obtain new stress tensor

variable tmp equal pxx
variable pxx1 equal -40993.6583393943
variable tmp equal pyy
variable pyy1 equal -40993.6702946867
variable tmp equal pzz
variable pzz1 equal -2.93513764262007e-08
variable tmp equal pxy
variable pxy1 equal 0.227698656617783
variable tmp equal pxz
variable pxz1 equal -1.24957815853355e-08
variable tmp equal pyz
variable pyz1 equal -7.13380190525423e-09

# Compute elastic constant from pressure tensor

variable C1neg equal -3706163.83347301
variable C2neg equal -3706161.97125547
variable C3neg equal -6930465.85775729
variable C4neg equal -7.53619530781039e-07
variable C5neg equal -1.17682659770908e-06
variable C6neg equal 23.3856998248693

# Reset box and simulation parameters

clear
package omp 0
using multi-threaded neighbor list subroutines
box tilt large

The 'box' command has been removed and will be ignored

read_restart restart.equil
Reading restart file ...
  restart file = 7 Feb 2024, LAMMPS = 7 Feb 2024
  restoring atom style atomic from restart
  triclinic box = (0.31473059 0.27256462 -115.05892) to (5.7194694 4.9532059 193.59992) with tilt (-2.7023695 0 0)
  pair style tersoff stores no restart info
  280 atoms
  read_restart CPU = 0.000 seconds
include in.potential.mod
# NOTE: This script can be modified for different pair styles
# See in.elastic for more info.

# Choose potential
pair_style tersoff
pair_coeff * * WB.tersoff W B

# Setup neighbor style
neighbor 1.0 nsq
neigh_modify once no every 1 delay 0 check yes

# Setup minimization style
min_style	cg
min_modify dmax 0.01 line quadratic

# Setup output
thermo 1
thermo_style custom step temp pe press pxx pyy pzz pxy pxz pyz lx ly lz vol
thermo_modify norm no

dump 2 all atom 10 dump.W2B5_elastic.lammpstrj

# Positive deformation

variable delta equal 1e-06*4.6806412501908
variable deltaxy equal 1e-06*xy
variable deltaxz equal 1e-06*xz
variable deltayz equal 1e-06*yz
change_box all xy delta 4.6806412501908e-06 remap units box
Changing box ...
  triclinic box = (0.31473059 0.27256462 -115.05892) to (5.7194694 4.9532059 193.59992) with tilt (-2.7023648 0 0)

# Relax atoms positions

minimize 0 1e-10 100 1000
Last active /omp style is pair_style tersoff/omp
Step          Temp          PotEng         Press           Pxx            Pyy            Pzz            Pxy            Pxz            Pyz             Lx             Ly             Lz           Volume
2100   0             -665.65823      20480.744     -3931.3278     -3931.3575      69304.917     -0.26785098     0.12076213     0.61106057     5.4047388      4.6806413      308.65884      7808.3414
Loop time of 0.0427056 on 6 procs for 41 steps with 280 atoms

Minimization stats:
  Stopping criterion = force tolerance
  Energy initial, next-to-last, final =
  Force two-norm initial, final = 123.39526 7.9647964e-11
  Force max component initial, final = 13.796839 1.9273472e-11
  Final line search alpha, max atom move = 1 1.9273472e-11
  Iterations, force evaluations = 41 68

# Obtain new stress tensor

variable tmp equal pe
variable e1 equal -743.205632444147
variable tmp equal press
variable p1 equal -27329.1095447644
variable tmp equal pxx
variable pxx1 equal -40993.6583393975
variable tmp equal pyy
variable pyy1 equal -40993.6702948719
variable tmp equal pzz
variable pzz1 equal -2.38155347501023e-08
variable tmp equal pxy
variable pxy1 equal -0.220795019425056
variable tmp equal pxz
variable pxz1 equal -2.83483769713712e-09
variable tmp equal pyz
variable pyz1 equal -3.34486841369739e-09

# Compute elastic constant from pressure tensor

variable C1pos equal 3706163.83347333
variable C2pos equal 3706161.97127399
variable C3pos equal 6930465.85775673
variable C4pos equal 3.74726181625355e-07
variable C5pos equal 2.10732208889246e-07
variable C6pos equal 21.4636677794146

# Combine positive and negative

variable C16 equal 0.5*(-3706163.83347301+3706163.83347333)
variable C26 equal 0.5*(-3706161.97125547+3706161.97127399)
variable C36 equal 0.5*(-6930465.85775729+6930465.85775673)
variable C46 equal 0.5*(-7.53619530781039e-07+3.74726181625355e-07)
variable C56 equal 0.5*(-1.17682659770908e-06+2.10732208889246e-07)
variable C66 equal 0.5*(23.3856998248693+21.4636677794146)

# Delete dir to make sure it is not reused

variable dir delete

# Output final values

variable C11all equal 89.2501940999646
variable C22all equal 89.2501686499454
variable C33all equal -4.10247594118118e-07

variable C12all equal 0.5*(44.4007922350429+44.4007958099246)
variable C13all equal 0.5*(-4.09936577500775+6.60307705402374e-07)
variable C23all equal 0.5*(-4.09936693008058+2.0097941160202e-06)

variable C44all equal -8.89075379568545e-08
variable C55all equal 1.08242105824888e-08
variable C66all equal 22.4246838021419

variable C14all equal 0.5*(-1.25030055642128e-07+3.36688059204894e-07)
variable C15all equal 0.5*(-8.49831849336624e-08+5.73426286459716e-07)
variable C16all equal 0.5*(1.59954652190208e-07+-2.55606312754564e-06)

variable C24all equal 0.5*(-1.59954652190208e-07+-1.37630272567261e-07)
variable C25all equal 0.5*(1.49011611938477e-08+-1.29101196898382e-07)
variable C26all equal 0.5*(9.25990752875805e-06+1.57274740610336e-05)

variable C34all equal 0.5*(1.41514465212822e-06+7.60767587969425e-08)
variable C35all equal 0.5*(-2.20257788896561e-07+-3.6071856405987e-08)
variable C36all equal 0.5*(-2.79862433671951e-07+3.14170201465291e-07)

variable C45all equal 0.5*(-3.3181616115921e-08+1.05667693950759e-07)
variable C46all equal 0.5*(-1.89446674577842e-07+-3.13837000276429e-08)
variable C56all equal 0.5*(-4.83047194409917e-07+7.76779344735523e-08)

C11: 89.2501940999646
C12: 44.4007922350429
C44: -8.89075379568545e-08
