LAMMPS (7 Feb 2024 - Development - patch_7Feb2024_update1-197-g554f53decb)
package omp 0
using multi-threaded neighbor list subroutines
clear
package omp 0
using multi-threaded neighbor list subroutines
units metal
dimension 3
boundary p p p

# Atom definition
atom_style atomic
atom_modify map array

read_data W2B5-P6_3-mmc.lmpstr
Reading data file ...
  triclinic box = (0 0 0) to (3.0171 3.0171 15.7082) with tilt (0 0 0)
  reading atoms ...
  4 atoms
replicate 4 4 4
Replication is creating a 4x4x4 = 64 times larger system...
  triclinic box = (0 0 0) to (12.0684 12.0684 62.8328) with tilt (0 0 0)
  256 atoms
  replicate CPU = 0.001 seconds

# Define mass and interactions (from lit.)
pair_style tersoff
pair_coeff * * WB.tersoff W B

# Neighbors and thermo settings
neighbor 2.0 bin
neigh_modify delay 1 check yes

reset_timestep 0
# The vmax keyword can be used to limit the fractional change in the
# volume of the simulation box that can occur in one iteration of the
# minimizer. If the pressure is not settling down during the
# minimization this can be because the volume is fluctuating too much.
# The specified fraction must be greater than 0.0 and should be << 1.0.
fix box_relax all box/relax aniso 0.0 vmax 0.001

# Set the thermo style to collect data every 10 time steps
thermo 10
thermo_style custom step temp press etotal vol cella cellc

# Minimisation algorithms:
#   cg = Conjugate Gradient
#   sd = Steepest Descent
# Typically, steepest descent will not converge as quickly as CG, but may
# be more robust in some situations.

# Run energy minimisation algorithms. Use multiple to guarantee a stable
# phase. Minimize args:
#   etol(stop tolerance: energy)
#   ftol(stop tolerance: force)
#   maxiter(max iters of minimiser)
#   maxeval(max # of F/E calcs)

min_style cg
minimize 1.0e-10 1.0e-12 10000 1000000
Last active /omp style is pair_style tersoff/omp
 (src/min.cpp:219)
Step          Temp          Press          TotEng         Volume         Cella          Cellc
0   0              5233953.7      14557.109      9151.3635      12.0684        62.8328
Averages over the last 390 of 779 rows, steps 3890 to 7774:
Temp Press TotEng Volume Cella Cellc
0 885.009 -1461.3 10083.7 8.12186 159.475
Loop time of 16.0568 on 6 procs for 7774 steps with 256 atoms

Minimization stats:
  Stopping criterion = energy tolerance
  Energy initial, next-to-last, final =
  Force two-norm initial, final = 58378.478 19.818023
  Force max component initial, final = 51652.697 12.171825
  Final line search alpha, max atom move = 0.00010301949 0.0012539352
  Iterations, force evaluations = 7774 11777

min_style sd
minimize 1.0e-10 1.0e-12 10000 1000000
Last active /omp style is pair_style tersoff/omp
 (src/min.cpp:219)
Step          Temp          Press          TotEng         Volume         Cella          Cellc
7774   0             -2067.5161     -1523.8622      9737.9055      7.9203212      160.02462
Averages over the last 501 of 1002 rows, steps 12780 to 17774:
Temp Press TotEng Volume Cella Cellc
0 1503.48 -1525.22 9701.88 7.91763 159.764
Loop time of 91.3736 on 6 procs for 10000 steps with 256 atoms

Minimization stats:
  Stopping criterion = max iterations
  Energy initial, next-to-last, final =
  Force two-norm initial, final = 25.901506 22.117086
  Force max component initial, final = 22.678664 20.703268
  Final line search alpha, max atom move = 0.0008344196 0.017275213
  Iterations, force evaluations = 10000 54964

min_style cg
minimize 1.0e-10 1.0e-12 10000 1000000
Last active /omp style is pair_style tersoff/omp
 (src/min.cpp:219)
Step          Temp          Press          TotEng         Volume         Cella          Cellc
17774   0              1503.7062     -1525.681       9691.5437      7.9165011      159.69905
Loop time of 0.824123 on 6 procs for 188 steps with 256 atoms

Minimization stats:
  Stopping criterion = energy tolerance
  Energy initial, next-to-last, final =
  Force two-norm initial, final = 22.07634 55.458273
  Force max component initial, final = 20.661148 50.787338
  Final line search alpha, max atom move = 1.150528e-05 0.00058432253
  Iterations, force evaluations = 188 488

min_style cg
minimize 1.0e-10 1.0e-12 10000 1000000
Last active /omp style is pair_style tersoff/omp
 (src/min.cpp:219)
Step          Temp          Press          TotEng         Volume         Cella          Cellc
17962   0             -4349.8462     -1528.2699      9654.6834      7.910232       159.66674
Averages over the last 165 of 330 rows, steps 19610 to 21246:
Temp Press TotEng Volume Cella Cellc
0 -513.398 -1576.72 9258.75 7.70387 162.958
Loop time of 11.9163 on 6 procs for 3284 steps with 256 atoms

Minimization stats:
  Stopping criterion = energy tolerance
  Energy initial, next-to-last, final =
  Force two-norm initial, final = 55.43953 7.0809982
  Force max component initial, final = 50.777063 5.9462459
  Final line search alpha, max atom move = 0.00010407652 0.00061886458
  Iterations, force evaluations = 3284 6724

unfix box_relax

# Divide sim box by periodic multiple
variable        a equal cella/4
variable        b equal cellb/4
variable        c equal cellc/4
variable        E equal etotal

LA: 1.9112475664804
LB: 1.82371592953403
LC: 41.0999815942673
COHENERGY: -1582.9676769456

# ELASTIC CONSTANT

variable up equal 1.0e-6
variable atomjiggle equal 1.0e-5
variable cfac equal 1.0e-4
variable cunits string GPa
variable etol equal 0.0
variable ftol equal 1.0e-10
variable maxiter equal 100
variable maxeval equal 1000
variable dmax equal 1.0e-2

include potential.mod
# NOTE: This script can be modified for different pair styles
# See in.elastic for more info.

# Choose potential
pair_style tersoff
pair_coeff * * WB.tersoff W B

# Setup neighbor style
neighbor 1.0 nsq
neigh_modify once no every 1 delay 0 check yes

# Setup minimization style
min_style	     cg
min_modify	     dmax 0.01 line quadratic

# Setup output
thermo		1
thermo_style custom step temp pe press pxx pyy pzz pxy pxz pyz lx ly lz vol
thermo_modify norm no

# Compute initial state
fix 3 all box/relax  aniso 1.0
minimize 0 1e-10 100 1000
Last active /omp style is pair_style tersoff/omp
 (src/min.cpp:219)
Step          Temp          PotEng         Press           Pxx            Pyy            Pzz            Pxy            Pxz            Pyz             Lx             Ly             Lz           Volume
21246   0             -1582.9677     -634.4197      -492.07608     -341.27946     -1069.9036     -18847.57       4392.4933     -104.67031      7.6449903      7.2948637      164.39993      9168.4461
Loop time of 0.292074 on 6 procs for 100 steps with 256 atoms

Minimization stats:
  Stopping criterion = max iterations
  Energy initial, next-to-last, final =
  Force two-norm initial, final = 7.1734801 2.2548383
  Force max component initial, final = 6.1282397 1.6365964
  Final line search alpha, max atom move = 9.8883751e-05 0.00016183279
  Iterations, force evaluations = 100 168

variable tmp equal pxx
variable pxx0 equal -87.8034550668664
variable tmp equal pyy
variable pyy0 equal 286.97202201637
variable tmp equal pzz
variable pzz0 equal 97.3933781741943
variable tmp equal pyz
variable pyz0 equal -39.6737053871124
variable tmp equal pxz
variable pxz0 equal 4396.62969285475
variable tmp equal pxy
variable pxy0 equal -18786.3653471928

variable tmp equal lx
variable lx0 equal 7.64491940597427
variable tmp equal ly
variable ly0 equal 7.2929321356803
variable tmp equal lz
variable lz0 equal 164.413815310235

# These formulas define the derivatives w.r.t. strain components
# Constants uses $, variables use v_
variable d1 equal -(v_pxx1--87.8034550668664)/(v_delta/v_len0)*0.0001
variable d2 equal -(v_pyy1-286.97202201637)/(v_delta/v_len0)*0.0001
variable d3 equal -(v_pzz1-97.3933781741943)/(v_delta/v_len0)*0.0001
variable d4 equal -(v_pyz1--39.6737053871124)/(v_delta/v_len0)*0.0001
variable d5 equal -(v_pxz1-4396.62969285475)/(v_delta/v_len0)*0.0001
variable d6 equal -(v_pxy1--18786.3653471928)/(v_delta/v_len0)*0.0001

displace_atoms all random 1e-05 1e-05 1e-05 87287 units box
Displacing atoms ...

# Write restart
unfix 3
write_restart restart.equil
System init for write_restart ...
Last active /omp style is pair_style tersoff/omp

variable dir equal 1
include displace.mod
# NOTE: This script should not need to be
# modified. See in.elastic for more info.
#
# Find which reference length to use

variable len0 equal 7.64491940597427

# Reset box and simulation parameters

clear
package omp 0
using multi-threaded neighbor list subroutines
box tilt large

The 'box' command has been removed and will be ignored

read_restart restart.equil
Reading restart file ...
  restart file = 7 Feb 2024, LAMMPS = 7 Feb 2024
  restoring atom style atomic from restart
  triclinic box = (2.2117403 2.3877339 -50.790508) to (9.8566597 9.6806661 113.62331) with tilt (0 0 0)
  pair style tersoff stores no restart info
  256 atoms
  read_restart CPU = 0.000 seconds
include potential.mod
# NOTE: This script can be modified for different pair styles
# See in.elastic for more info.

# Choose potential
pair_style tersoff
pair_coeff * * WB.tersoff W B

# Setup neighbor style
neighbor 1.0 nsq
neigh_modify once no every 1 delay 0 check yes

# Setup minimization style
min_style	     cg
min_modify	     dmax 0.01 line quadratic

# Setup output
thermo		1
thermo_style custom step temp pe press pxx pyy pzz pxy pxz pyz lx ly lz vol
thermo_modify norm no

# Negative deformation

variable delta equal -1e-06*7.64491940597427
variable deltaxy equal -1e-06*xy
variable deltaxz equal -1e-06*xz
variable deltayz equal -1e-06*yz
change_box all x delta 0 -7.64491940597427e-06 xy delta -0 xz delta -0 remap units box
Changing box ...
  triclinic box = (2.2117403 2.3877339 -50.790508) to (9.8566521 9.6806661 113.62331) with tilt (0 0 0)
  triclinic box = (2.2117403 2.3877339 -50.790508) to (9.8566521 9.6806661 113.62331) with tilt (0 0 0)
  triclinic box = (2.2117403 2.3877339 -50.790508) to (9.8566521 9.6806661 113.62331) with tilt (0 0 0)

# Relax atoms positions

minimize 0 1e-10 100 1000
Last active /omp style is pair_style tersoff/omp
Step          Temp          PotEng         Press           Pxx            Pyy            Pzz            Pxy            Pxz            Pyz             Lx             Ly             Lz           Volume
21346   0             -1583.0302      78.030073     -82.991415      285.0172       32.064436     -18793.171      4408.1306     -21.967283      7.6449118      7.2929321      164.41382      9166.6987
Loop time of 0.423877 on 6 procs for 100 steps with 256 atoms

Minimization stats:
  Stopping criterion = max iterations
  Energy initial, next-to-last, final =
  Force two-norm initial, final = 1.3506972 1.1989344
  Force max component initial, final = 0.18712807 0.43276271
  Final line search alpha, max atom move = 0.021978161 0.0095113284
  Iterations, force evaluations = 100 200

# Obtain new stress tensor

variable tmp equal pxx
variable pxx1 equal -508.015146974341
variable tmp equal pyy
variable pyy1 equal -2599.23818223029
variable tmp equal pzz
variable pzz1 equal 285.269436275303
variable tmp equal pxy
variable pxy1 equal -18150.5964954491
variable tmp equal pxz
variable pxz1 equal 4284.64786932214
variable tmp equal pyz
variable pyz1 equal 573.677805351528

# Compute elastic constant from pressure tensor

variable C1neg equal -42021.1691907475
variable C2neg equal -288621.020424666
variable C3neg equal 18787.6058101109
variable C4neg equal 61335.151073864
variable C5neg equal -11198.182353261
variable C6neg equal 63576.8851743702

# Reset box and simulation parameters

clear
package omp 0
using multi-threaded neighbor list subroutines
box tilt large

The 'box' command has been removed and will be ignored

read_restart restart.equil
Reading restart file ...
  restart file = 7 Feb 2024, LAMMPS = 7 Feb 2024
  restoring atom style atomic from restart
  triclinic box = (2.2117403 2.3877339 -50.790508) to (9.8566597 9.6806661 113.62331) with tilt (0 0 0)
  pair style tersoff stores no restart info
  256 atoms
  read_restart CPU = 0.000 seconds
include potential.mod
# NOTE: This script can be modified for different pair styles
# See in.elastic for more info.

# Choose potential
pair_style tersoff
pair_coeff * * WB.tersoff W B

# Setup neighbor style
neighbor 1.0 nsq
neigh_modify once no every 1 delay 0 check yes

# Setup minimization style
min_style	     cg
min_modify	     dmax 0.01 line quadratic

# Setup output
thermo		1
thermo_style custom step temp pe press pxx pyy pzz pxy pxz pyz lx ly lz vol
thermo_modify norm no

# Positive deformation

variable delta equal 1e-06*7.64491940597427
variable deltaxy equal 1e-06*xy
variable deltaxz equal 1e-06*xz
variable deltayz equal 1e-06*yz
change_box all x delta 0 7.64491940597427e-06 xy delta 0 xz delta 0 remap units box
Changing box ...
  triclinic box = (2.2117403 2.3877339 -50.790508) to (9.8566673 9.6806661 113.62331) with tilt (0 0 0)
  triclinic box = (2.2117403 2.3877339 -50.790508) to (9.8566673 9.6806661 113.62331) with tilt (0 0 0)
  triclinic box = (2.2117403 2.3877339 -50.790508) to (9.8566673 9.6806661 113.62331) with tilt (0 0 0)

# Relax atoms positions

minimize 0 1e-10 100 1000
Last active /omp style is pair_style tersoff/omp
Step          Temp          PotEng         Press           Pxx            Pyy            Pzz            Pxy            Pxz            Pyz             Lx             Ly             Lz           Volume
21346   0             -1583.0302      65.67267      -103.88407      277.75946      23.142617     -18791.541      4406.8625     -22.521829      7.6449271      7.2929321      164.41382      9166.717
Loop time of 0.368176 on 6 procs for 100 steps with 256 atoms

Minimization stats:
  Stopping criterion = max iterations
  Energy initial, next-to-last, final =
  Force two-norm initial, final = 1.3510444 1.9065553
  Force max component initial, final = 0.18713915 1.0975471
  Final line search alpha, max atom move = 0.0151082 0.016581961
  Iterations, force evaluations = 100 203

# Obtain new stress tensor

variable tmp equal pe
variable e1 equal -1583.29022947525
variable tmp equal press
variable p1 equal -405.782356271646
variable tmp equal pxx
variable pxx1 equal -478.812190262589
variable tmp equal pyy
variable pyy1 equal -1832.95924209985
variable tmp equal pzz
variable pzz1 equal 1094.4243635475
variable tmp equal pxy
variable pxy1 equal -18298.8540948725
variable tmp equal pxz
variable pxz1 equal 4282.27489111528
variable tmp equal pyz
variable pyz1 equal 210.604805706023

# Compute elastic constant from pressure tensor

variable C1pos equal 39100.8735195723
variable C2pos equal 211993.126411622
variable C3pos equal -99703.0985373306
variable C4pos equal -25027.8511093135
variable C5pos equal 11435.480173947
variable C6pos equal -48751.1252320303

# Combine positive and negative

variable C11 equal 0.5*(-42021.1691907475+39100.8735195723)
variable C21 equal 0.5*(-288621.020424666+211993.126411622)
variable C31 equal 0.5*(18787.6058101109+-99703.0985373306)
variable C41 equal 0.5*(61335.151073864+-25027.8511093135)
variable C51 equal 0.5*(-11198.182353261+11435.480173947)
variable C61 equal 0.5*(63576.8851743702+-48751.1252320303)

# Delete dir to make sure it is not reused

variable dir delete

# uyy Perturbation

variable dir equal 2
include displace.mod
# NOTE: This script should not need to be
# modified. See in.elastic for more info.
#
# Find which reference length to use

variable len0 equal 7.2929321356803

# Reset box and simulation parameters

clear
package omp 0
using multi-threaded neighbor list subroutines
box tilt large

The 'box' command has been removed and will be ignored

read_restart restart.equil
Reading restart file ...
  restart file = 7 Feb 2024, LAMMPS = 7 Feb 2024
  restoring atom style atomic from restart
  triclinic box = (2.2117403 2.3877339 -50.790508) to (9.8566597 9.6806661 113.62331) with tilt (0 0 0)
  pair style tersoff stores no restart info
  256 atoms
  read_restart CPU = 0.000 seconds
include potential.mod
# NOTE: This script can be modified for different pair styles
# See in.elastic for more info.

# Choose potential
pair_style tersoff
pair_coeff * * WB.tersoff W B

# Setup neighbor style
neighbor 1.0 nsq
neigh_modify once no every 1 delay 0 check yes

# Setup minimization style
min_style	     cg
min_modify	     dmax 0.01 line quadratic

# Setup output
thermo		1
thermo_style custom step temp pe press pxx pyy pzz pxy pxz pyz lx ly lz vol
thermo_modify norm no

# Negative deformation

variable delta equal -1e-06*7.2929321356803
variable deltaxy equal -1e-06*xy
variable deltaxz equal -1e-06*xz
variable deltayz equal -1e-06*yz
change_box all y delta 0 -7.2929321356803e-06 yz delta -0 remap units box
Changing box ...
  triclinic box = (2.2117403 2.3877339 -50.790508) to (9.8566597 9.6806588 113.62331) with tilt (0 0 0)
  triclinic box = (2.2117403 2.3877339 -50.790508) to (9.8566597 9.6806588 113.62331) with tilt (0 0 0)

# Relax atoms positions

minimize 0 1e-10 100 1000
Last active /omp style is pair_style tersoff/omp
Step          Temp          PotEng         Press           Pxx            Pyy            Pzz            Pxy            Pxz            Pyz             Lx             Ly             Lz           Volume
21346   0             -1583.0302      77.585682     -89.809322      289.42766      33.138704     -18792.5        4406.9937     -22.964513      7.6449194      7.2929248      164.41382      9166.6987
Loop time of 0.446795 on 6 procs for 100 steps with 256 atoms

Minimization stats:
  Stopping criterion = max iterations
  Energy initial, next-to-last, final =
  Force two-norm initial, final = 1.3509857 1.1730405
  Force max component initial, final = 0.18712248 0.25535391
  Final line search alpha, max atom move = 0.018729692 0.0047827001
  Iterations, force evaluations = 100 200

# Obtain new stress tensor

variable tmp equal pxx
variable pxx1 equal -516.600235680632
variable tmp equal pyy
variable pyy1 equal -2056.67032905601
variable tmp equal pzz
variable pzz1 equal 368.280000192445
variable tmp equal pxy
variable pxy1 equal -18291.9623812312
variable tmp equal pxz
variable pxz1 equal 4376.97443416639
variable tmp equal pyz
variable pyz1 equal 448.838218244896

# Compute elastic constant from pressure tensor

variable C1neg equal -42879.6780613766
variable C2neg equal -234364.235107238
variable C3neg equal 27088.6622018251
variable C4neg equal 48851.1923632008
variable C5neg equal -1965.52586883599
variable C6neg equal 49440.2965961603

# Reset box and simulation parameters

clear
package omp 0
using multi-threaded neighbor list subroutines
box tilt large

The 'box' command has been removed and will be ignored

read_restart restart.equil
Reading restart file ...
  restart file = 7 Feb 2024, LAMMPS = 7 Feb 2024
  restoring atom style atomic from restart
  triclinic box = (2.2117403 2.3877339 -50.790508) to (9.8566597 9.6806661 113.62331) with tilt (0 0 0)
  pair style tersoff stores no restart info
  256 atoms
  read_restart CPU = 0.000 seconds
include potential.mod
# NOTE: This script can be modified for different pair styles
# See in.elastic for more info.

# Choose potential
pair_style tersoff
pair_coeff * * WB.tersoff W B

# Setup neighbor style
neighbor 1.0 nsq
neigh_modify once no every 1 delay 0 check yes

# Setup minimization style
min_style	     cg
min_modify	     dmax 0.01 line quadratic

# Setup output
thermo		1
thermo_style custom step temp pe press pxx pyy pzz pxy pxz pyz lx ly lz vol
thermo_modify norm no

# Positive deformation

variable delta equal 1e-06*7.2929321356803
variable deltaxy equal 1e-06*xy
variable deltaxz equal 1e-06*xz
variable deltayz equal 1e-06*yz
change_box all y delta 0 7.2929321356803e-06 yz delta 0 remap units box
Changing box ...
  triclinic box = (2.2117403 2.3877339 -50.790508) to (9.8566597 9.6806734 113.62331) with tilt (0 0 0)
  triclinic box = (2.2117403 2.3877339 -50.790508) to (9.8566597 9.6806734 113.62331) with tilt (0 0 0)

# Relax atoms positions

minimize 0 1e-10 100 1000
Last active /omp style is pair_style tersoff/omp
Step          Temp          PotEng         Press           Pxx            Pyy            Pzz            Pxy            Pxz            Pyz             Lx             Ly             Lz           Volume
21346   0             -1583.0302      66.117025     -97.066309      273.34906      22.068325     -18792.211      4407.9994     -21.524612      7.6449194      7.2929394      164.41382      9166.717
Loop time of 0.369079 on 6 procs for 100 steps with 256 atoms

Minimization stats:
  Stopping criterion = max iterations
  Energy initial, next-to-last, final =
  Force two-norm initial, final = 1.350773 1.2997527
  Force max component initial, final = 0.18714474 0.45259574
  Final line search alpha, max atom move = 0.021711593 0.0098265743
  Iterations, force evaluations = 100 199

# Obtain new stress tensor

variable tmp equal pe
variable e1 equal -1583.36724716319
variable tmp equal press
variable p1 equal -891.307983217814
variable tmp equal pxx
variable pxx1 equal -506.511567811328
variable tmp equal pyy
variable pyy1 equal -2364.26952833644
variable tmp equal pzz
variable pzz1 equal 196.857146494324
variable tmp equal pxy
variable pxy1 equal -18220.8312159097
variable tmp equal pxz
variable pxz1 equal 4340.79066310018
variable tmp equal pyz
variable pyz1 equal 526.451264845711

# Compute elastic constant from pressure tensor

variable C1pos equal 41870.8112744462
variable C2pos equal 265124.155035281
variable C3pos equal -9946.37683201297
variable C4pos equal -56612.4970232823
variable C5pos equal 5583.90297545702
variable C6pos equal -56553.4131283101

# Combine positive and negative

variable C12 equal 0.5*(-42879.6780613766+41870.8112744462)
variable C22 equal 0.5*(-234364.235107238+265124.155035281)
variable C32 equal 0.5*(27088.6622018251+-9946.37683201297)
variable C42 equal 0.5*(48851.1923632008+-56612.4970232823)
variable C52 equal 0.5*(-1965.52586883599+5583.90297545702)
variable C62 equal 0.5*(49440.2965961603+-56553.4131283101)

# Delete dir to make sure it is not reused

variable dir delete

# uzz Perturbation

variable dir equal 3
include displace.mod
# NOTE: This script should not need to be
# modified. See in.elastic for more info.
#
# Find which reference length to use

variable len0 equal 164.413815310235

# Reset box and simulation parameters

clear
package omp 0
using multi-threaded neighbor list subroutines
box tilt large

The 'box' command has been removed and will be ignored

read_restart restart.equil
Reading restart file ...
  restart file = 7 Feb 2024, LAMMPS = 7 Feb 2024
  restoring atom style atomic from restart
  triclinic box = (2.2117403 2.3877339 -50.790508) to (9.8566597 9.6806661 113.62331) with tilt (0 0 0)
  pair style tersoff stores no restart info
  256 atoms
  read_restart CPU = 0.000 seconds
include potential.mod
# NOTE: This script can be modified for different pair styles
# See in.elastic for more info.

# Choose potential
pair_style tersoff
pair_coeff * * WB.tersoff W B

# Setup neighbor style
neighbor 1.0 nsq
neigh_modify once no every 1 delay 0 check yes

# Setup minimization style
min_style	     cg
min_modify	     dmax 0.01 line quadratic

# Setup output
thermo		1
thermo_style custom step temp pe press pxx pyy pzz pxy pxz pyz lx ly lz vol
thermo_modify norm no

# Negative deformation

variable delta equal -1e-06*164.413815310235
variable deltaxy equal -1e-06*xy
variable deltaxz equal -1e-06*xz
variable deltayz equal -1e-06*yz
change_box all z delta 0 -0.000164413815310235 remap units box
Changing box ...
  triclinic box = (2.2117403 2.3877339 -50.790508) to (9.8566597 9.6806661 113.62314) with tilt (0 0 0)

# Relax atoms positions

minimize 0 1e-10 100 1000
Last active /omp style is pair_style tersoff/omp
Step          Temp          PotEng         Press           Pxx            Pyy            Pzz            Pxy            Pxz            Pyz             Lx             Ly             Lz           Volume
21346   0             -1583.0302      92.82398      -88.977031      286.92375      80.525217     -18790.341      4400.626      -33.511063      7.6449194      7.2929321      164.41365      9166.6987
Loop time of 0.376893 on 6 procs for 100 steps with 256 atoms

Minimization stats:
  Stopping criterion = max iterations
  Energy initial, next-to-last, final =
  Force two-norm initial, final = 1.3491577 1.2835038
  Force max component initial, final = 0.18711943 0.29015702
  Final line search alpha, max atom move = 0.032584111 0.0094545086
  Iterations, force evaluations = 100 202

# Obtain new stress tensor

variable tmp equal pxx
variable pxx1 equal -496.369631696751
variable tmp equal pyy
variable pyy1 equal -2358.04505700891
variable tmp equal pzz
variable pzz1 equal 423.609760714386
variable tmp equal pxy
variable pxy1 equal -18225.8712599793
variable tmp equal pxz
variable pxz1 equal 4367.05746425211
variable tmp equal pyz
variable pyz1 equal 613.473796806171

# Compute elastic constant from pressure tensor

variable C1neg equal -40856.6176629885
variable C2neg equal -264501.707902528
variable C3neg equal 32621.6382540192
variable C4neg equal 65314.7502193283
variable C5neg equal -2957.22286026403
variable C6neg equal 56049.4087213501

# Reset box and simulation parameters

clear
package omp 0
using multi-threaded neighbor list subroutines
box tilt large

The 'box' command has been removed and will be ignored

read_restart restart.equil
Reading restart file ...
  restart file = 7 Feb 2024, LAMMPS = 7 Feb 2024
  restoring atom style atomic from restart
  triclinic box = (2.2117403 2.3877339 -50.790508) to (9.8566597 9.6806661 113.62331) with tilt (0 0 0)
  pair style tersoff stores no restart info
  256 atoms
  read_restart CPU = 0.000 seconds
include potential.mod
# NOTE: This script can be modified for different pair styles
# See in.elastic for more info.

# Choose potential
pair_style tersoff
pair_coeff * * WB.tersoff W B

# Setup neighbor style
neighbor 1.0 nsq
neigh_modify once no every 1 delay 0 check yes

# Setup minimization style
min_style	     cg
min_modify	     dmax 0.01 line quadratic

# Setup output
thermo		1
thermo_style custom step temp pe press pxx pyy pzz pxy pxz pyz lx ly lz vol
thermo_modify norm no

# Positive deformation

variable delta equal 1e-06*164.413815310235
variable deltaxy equal 1e-06*xy
variable deltaxz equal 1e-06*xz
variable deltayz equal 1e-06*yz
change_box all z delta 0 0.000164413815310235 remap units box
Changing box ...
  triclinic box = (2.2117403 2.3877339 -50.790508) to (9.8566597 9.6806661 113.62347) with tilt (0 0 0)

# Relax atoms positions

minimize 0 1e-10 100 1000
Last active /omp style is pair_style tersoff/omp
Step          Temp          PotEng         Press           Pxx            Pyy            Pzz            Pxy            Pxz            Pyz             Lx             Ly             Lz           Volume
21346   0             -1583.0302      54.482425     -97.613804      276.55297     -15.491886     -18793.925      4412.6942     -13.600934      7.6449194      7.2929321      164.41398      9166.717
Loop time of 0.373688 on 6 procs for 100 steps with 256 atoms

Minimization stats:
  Stopping criterion = max iterations
  Energy initial, next-to-last, final =
  Force two-norm initial, final = 1.354038 1.2107254
  Force max component initial, final = 0.18714777 0.4078112
  Final line search alpha, max atom move = 0.024121971 0.0098372102
  Iterations, force evaluations = 100 201

# Obtain new stress tensor

variable tmp equal pe
variable e1 equal -1583.3133271939
variable tmp equal press
variable p1 equal -750.32386234068
variable tmp equal pxx
variable pxx1 equal -506.644448764251
variable tmp equal pyy
variable pyy1 equal -2019.41316044277
variable tmp equal pzz
variable pzz1 equal 275.086022184986
variable tmp equal pxy
variable pxy1 equal -18285.8712058189
variable tmp equal pxz
variable pxz1 equal 4349.12836059255
variable tmp equal pyz
variable pyz1 equal 394.227135110643

# Compute elastic constant from pressure tensor

variable C1pos equal 41884.0993697385
variable C2pos equal 230638.518245914
variable C3pos equal -17769.2644010792
variable C4pos equal -43390.0840497755
variable C5pos equal 4750.13322621999
variable C6pos equal -50049.41413739

# Combine positive and negative

variable C13 equal 0.5*(-40856.6176629885+41884.0993697385)
variable C23 equal 0.5*(-264501.707902528+230638.518245914)
variable C33 equal 0.5*(32621.6382540192+-17769.2644010792)
variable C43 equal 0.5*(65314.7502193283+-43390.0840497755)
variable C53 equal 0.5*(-2957.22286026403+4750.13322621999)
variable C63 equal 0.5*(56049.4087213501+-50049.41413739)

# Delete dir to make sure it is not reused

variable dir delete

# uyz Perturbation

variable dir equal 4
include displace.mod
# NOTE: This script should not need to be
# modified. See in.elastic for more info.
#
# Find which reference length to use

variable len0 equal 164.413815310235

# Reset box and simulation parameters

clear
package omp 0
using multi-threaded neighbor list subroutines
box tilt large

The 'box' command has been removed and will be ignored

read_restart restart.equil
Reading restart file ...
  restart file = 7 Feb 2024, LAMMPS = 7 Feb 2024
  restoring atom style atomic from restart
  triclinic box = (2.2117403 2.3877339 -50.790508) to (9.8566597 9.6806661 113.62331) with tilt (0 0 0)
  pair style tersoff stores no restart info
  256 atoms
  read_restart CPU = 0.000 seconds
include potential.mod
# NOTE: This script can be modified for different pair styles
# See in.elastic for more info.

# Choose potential
pair_style tersoff
pair_coeff * * WB.tersoff W B

# Setup neighbor style
neighbor 1.0 nsq
neigh_modify once no every 1 delay 0 check yes

# Setup minimization style
min_style	     cg
min_modify	     dmax 0.01 line quadratic

# Setup output
thermo		1
thermo_style custom step temp pe press pxx pyy pzz pxy pxz pyz lx ly lz vol
thermo_modify norm no

# Negative deformation

variable delta equal -1e-06*164.413815310235
variable deltaxy equal -1e-06*xy
variable deltaxz equal -1e-06*xz
variable deltayz equal -1e-06*yz
change_box all yz delta -0.000164413815310235 remap units box
Changing box ...
  triclinic box = (2.2117403 2.3877339 -50.790508) to (9.8566597 9.6806661 113.62331) with tilt (0 0 -0.00016441382)

# Relax atoms positions

minimize 0 1e-10 100 1000
Last active /omp style is pair_style tersoff/omp
Step          Temp          PotEng         Press           Pxx            Pyy            Pzz            Pxy            Pxz            Pyz             Lx             Ly             Lz           Volume
21346   0             -1583.0302      67.948261     -93.160568      280.66836      16.336987     -18792.841      4409.5666     -17.287803      7.6449194      7.2929321      164.41382      9166.7079
Loop time of 0.363007 on 6 procs for 100 steps with 256 atoms

Minimization stats:
  Stopping criterion = max iterations
  Energy initial, next-to-last, final =
  Force two-norm initial, final = 1.3520587 1.217683
  Force max component initial, final = 0.18713032 0.34020155
  Final line search alpha, max atom move = 0.028977944 0.0098583414
  Iterations, force evaluations = 100 200

# Obtain new stress tensor

variable tmp equal pxx
variable pxx1 equal -498.462472212785
variable tmp equal pyy
variable pyy1 equal -1873.12811030147
variable tmp equal pzz
variable pzz1 equal 296.995917774721
variable tmp equal pxy
variable pxy1 equal -18330.5194193165
variable tmp equal pxz
variable pxz1 equal 4382.55379642213
variable tmp equal pyz
variable pyz1 equal 388.763326890691

# Compute elastic constant from pressure tensor

variable C1neg equal -41065.9017145919
variable C2neg equal -216010.013231784
variable C3neg equal 19960.2539600527
variable C4neg equal 42843.7032277804
variable C5neg equal -1407.58964326196
variable C6neg equal 45584.59278763

# Reset box and simulation parameters

clear
package omp 0
using multi-threaded neighbor list subroutines
box tilt large

The 'box' command has been removed and will be ignored

read_restart restart.equil
Reading restart file ...
  restart file = 7 Feb 2024, LAMMPS = 7 Feb 2024
  restoring atom style atomic from restart
  triclinic box = (2.2117403 2.3877339 -50.790508) to (9.8566597 9.6806661 113.62331) with tilt (0 0 0)
  pair style tersoff stores no restart info
  256 atoms
  read_restart CPU = 0.000 seconds
include potential.mod
# NOTE: This script can be modified for different pair styles
# See in.elastic for more info.

# Choose potential
pair_style tersoff
pair_coeff * * WB.tersoff W B

# Setup neighbor style
neighbor 1.0 nsq
neigh_modify once no every 1 delay 0 check yes

# Setup minimization style
min_style	     cg
min_modify	     dmax 0.01 line quadratic

# Setup output
thermo		1
thermo_style custom step temp pe press pxx pyy pzz pxy pxz pyz lx ly lz vol
thermo_modify norm no

# Positive deformation

variable delta equal 1e-06*164.413815310235
variable deltaxy equal 1e-06*xy
variable deltaxz equal 1e-06*xz
variable deltayz equal 1e-06*yz
change_box all yz delta 0.000164413815310235 remap units box
Changing box ...
  triclinic box = (2.2117403 2.3877339 -50.790508) to (9.8566597 9.6806661 113.62331) with tilt (0 0 0.00016441382)

# Relax atoms positions

minimize 0 1e-10 100 1000
Last active /omp style is pair_style tersoff/omp
Step          Temp          PotEng         Press           Pxx            Pyy            Pzz            Pxy            Pxz            Pyz             Lx             Ly             Lz           Volume
21346   0             -1583.0302      75.754324     -93.715158      282.10817      38.869954     -18791.871      4405.4266     -27.201293      7.6449194      7.2929321      164.41382      9166.7079
Loop time of 0.372926 on 6 procs for 100 steps with 256 atoms

Minimization stats:
  Stopping criterion = max iterations
  Energy initial, next-to-last, final =
  Force two-norm initial, final = 1.3499887 1.1620306
  Force max component initial, final = 0.1871369 0.45226063
  Final line search alpha, max atom move = 0.020876791 0.0094417506
  Iterations, force evaluations = 100 197

# Obtain new stress tensor

variable tmp equal pe
variable e1 equal -1583.37604186356
variable tmp equal press
variable p1 equal -902.535283356959
variable tmp equal pxx
variable pxx1 equal -542.182812523857
variable tmp equal pyy
variable pyy1 equal -2433.35955955914
variable tmp equal pzz
variable pzz1 equal 267.936522012125
variable tmp equal pxy
variable pxy1 equal -18176.317862374
variable tmp equal pxz
variable pxz1 equal 4286.30677124473
variable tmp equal pyz
variable pyz1 equal 475.529125915854

# Compute elastic constant from pressure tensor

variable C1pos equal 45437.9357456991
variable C2pos equal 272033.158157551
variable C3pos equal -17054.3143837931
variable C4pos equal -51520.2831302966
variable C5pos equal 11032.292161002
variable C6pos equal -61004.7484818802

# Combine positive and negative

variable C14 equal 0.5*(-41065.9017145919+45437.9357456991)
variable C24 equal 0.5*(-216010.013231784+272033.158157551)
variable C34 equal 0.5*(19960.2539600527+-17054.3143837931)
variable C44 equal 0.5*(42843.7032277804+-51520.2831302966)
variable C54 equal 0.5*(-1407.58964326196+11032.292161002)
variable C64 equal 0.5*(45584.59278763+-61004.7484818802)

# Delete dir to make sure it is not reused

variable dir delete

# uxz Perturbation

variable dir equal 5
include displace.mod
# NOTE: This script should not need to be
# modified. See in.elastic for more info.
#
# Find which reference length to use

variable len0 equal 164.413815310235

# Reset box and simulation parameters

clear
package omp 0
using multi-threaded neighbor list subroutines
box tilt large

The 'box' command has been removed and will be ignored

read_restart restart.equil
Reading restart file ...
  restart file = 7 Feb 2024, LAMMPS = 7 Feb 2024
  restoring atom style atomic from restart
  triclinic box = (2.2117403 2.3877339 -50.790508) to (9.8566597 9.6806661 113.62331) with tilt (0 0 0)
  pair style tersoff stores no restart info
  256 atoms
  read_restart CPU = 0.000 seconds
include potential.mod
# NOTE: This script can be modified for different pair styles
# See in.elastic for more info.

# Choose potential
pair_style tersoff
pair_coeff * * WB.tersoff W B

# Setup neighbor style
neighbor 1.0 nsq
neigh_modify once no every 1 delay 0 check yes

# Setup minimization style
min_style	     cg
min_modify	     dmax 0.01 line quadratic

# Setup output
thermo		1
thermo_style custom step temp pe press pxx pyy pzz pxy pxz pyz lx ly lz vol
thermo_modify norm no

# Negative deformation

variable delta equal -1e-06*164.413815310235
variable deltaxy equal -1e-06*xy
variable deltaxz equal -1e-06*xz
variable deltayz equal -1e-06*yz
change_box all xz delta -0.000164413815310235 remap units box
Changing box ...
  triclinic box = (2.2117403 2.3877339 -50.790508) to (9.8566597 9.6806661 113.62331) with tilt (0 -0.00016441382 0)

# Relax atoms positions

minimize 0 1e-10 100 1000
Last active /omp style is pair_style tersoff/omp
Step          Temp          PotEng         Press           Pxx            Pyy            Pzz            Pxy            Pxz            Pyz             Lx             Ly             Lz           Volume
21346   0             -1583.0302      69.600444     -92.812625      280.88103      20.732927     -18792.107      4411.2535     -20.174549      7.6449194      7.2929321      164.41382      9166.7079
Loop time of 0.373386 on 6 procs for 100 steps with 256 atoms

Minimization stats:
  Stopping criterion = max iterations
  Energy initial, next-to-last, final =
  Force two-norm initial, final = 1.3515897 1.0525793
  Force max component initial, final = 0.18713968 0.17824652
  Final line search alpha, max atom move = 0.022047984 0.0039299764
  Iterations, force evaluations = 100 198

# Obtain new stress tensor

variable tmp equal pxx
variable pxx1 equal -563.882702747356
variable tmp equal pyy
variable pyy1 equal -2251.36526969727
variable tmp equal pzz
variable pzz1 equal 507.672281224126
variable tmp equal pxy
variable pxy1 equal -18236.1689671782
variable tmp equal pxz
variable pxz1 equal 4348.70135040214
variable tmp equal pyz
variable pyz1 equal 460.472772329185

# Compute elastic constant from pressure tensor

variable C1neg equal -47607.924768049
variable C2neg equal -253833.729171364
variable C3neg equal 41027.8903049932
variable C4neg equal 50014.6477716297
variable C5neg equal -4792.83424526102
variable C6neg equal 55019.6380014601

# Reset box and simulation parameters

clear
package omp 0
using multi-threaded neighbor list subroutines
box tilt large

The 'box' command has been removed and will be ignored

read_restart restart.equil
Reading restart file ...
  restart file = 7 Feb 2024, LAMMPS = 7 Feb 2024
  restoring atom style atomic from restart
  triclinic box = (2.2117403 2.3877339 -50.790508) to (9.8566597 9.6806661 113.62331) with tilt (0 0 0)
  pair style tersoff stores no restart info
  256 atoms
  read_restart CPU = 0.000 seconds
include potential.mod
# NOTE: This script can be modified for different pair styles
# See in.elastic for more info.

# Choose potential
pair_style tersoff
pair_coeff * * WB.tersoff W B

# Setup neighbor style
neighbor 1.0 nsq
neigh_modify once no every 1 delay 0 check yes

# Setup minimization style
min_style	     cg
min_modify	     dmax 0.01 line quadratic

# Setup output
thermo		1
thermo_style custom step temp pe press pxx pyy pzz pxy pxz pyz lx ly lz vol
thermo_modify norm no

# Positive deformation

variable delta equal 1e-06*164.413815310235
variable deltaxy equal 1e-06*xy
variable deltaxz equal 1e-06*xz
variable deltayz equal 1e-06*yz
change_box all xz delta 0.000164413815310235 remap units box
Changing box ...
  triclinic box = (2.2117403 2.3877339 -50.790508) to (9.8566597 9.6806661 113.62331) with tilt (0 0.00016441382 0)

# Relax atoms positions

minimize 0 1e-10 100 1000
Last active /omp style is pair_style tersoff/omp
Step          Temp          PotEng         Press           Pxx            Pyy            Pzz            Pxy            Pxz            Pyz             Lx             Ly             Lz           Volume
21346   0             -1583.0302      74.10214      -94.063111      281.89552      34.474006     -18792.605      4403.7396     -24.314572      7.6449194      7.2929321      164.41382      9166.7079
Loop time of 0.386983 on 6 procs for 100 steps with 256 atoms

Minimization stats:
  Stopping criterion = max iterations
  Energy initial, next-to-last, final =
  Force two-norm initial, final = 1.3502663 1.5167516
  Force max component initial, final = 0.18712754 0.48508892
  Final line search alpha, max atom move = 0.02018674 0.0097923637
  Iterations, force evaluations = 100 198

# Obtain new stress tensor

variable tmp equal pe
variable e1 equal -1583.38366897315
variable tmp equal press
variable p1 equal -1073.48351003059
variable tmp equal pxx
variable pxx1 equal -565.819720815979
variable tmp equal pyy
variable pyy1 equal -2548.15533715581
variable tmp equal pzz
variable pzz1 equal -106.475472119986
variable tmp equal pxy
variable pxy1 equal -18174.3856238668
variable tmp equal pxz
variable pxz1 equal 4313.80676817403
variable tmp equal pyz
variable pyz1 equal 529.138603217202

# Compute elastic constant from pressure tensor

variable C1pos equal 47801.6265749113
variable C2pos equal 283512.735917218
variable C3pos equal 20386.885029418
variable C4pos equal -56881.2308604314
variable C5pos equal 8282.29246807196
variable C6pos equal -61197.9723326

# Combine positive and negative

variable C15 equal 0.5*(-47607.924768049+47801.6265749113)
variable C25 equal 0.5*(-253833.729171364+283512.735917218)
variable C35 equal 0.5*(41027.8903049932+20386.885029418)
variable C45 equal 0.5*(50014.6477716297+-56881.2308604314)
variable C55 equal 0.5*(-4792.83424526102+8282.29246807196)
variable C65 equal 0.5*(55019.6380014601+-61197.9723326)

# Delete dir to make sure it is not reused

variable dir delete

# uxy Perturbation

variable dir equal 6
include displace.mod
# NOTE: This script should not need to be
# modified. See in.elastic for more info.
#
# Find which reference length to use

variable len0 equal 7.2929321356803

# Reset box and simulation parameters

clear
package omp 0
using multi-threaded neighbor list subroutines
box tilt large

The 'box' command has been removed and will be ignored

read_restart restart.equil
Reading restart file ...
  restart file = 7 Feb 2024, LAMMPS = 7 Feb 2024
  restoring atom style atomic from restart
  triclinic box = (2.2117403 2.3877339 -50.790508) to (9.8566597 9.6806661 113.62331) with tilt (0 0 0)
  pair style tersoff stores no restart info
  256 atoms
  read_restart CPU = 0.000 seconds
include potential.mod
# NOTE: This script can be modified for different pair styles
# See in.elastic for more info.

# Choose potential
pair_style tersoff
pair_coeff * * WB.tersoff W B

# Setup neighbor style
neighbor 1.0 nsq
neigh_modify once no every 1 delay 0 check yes

# Setup minimization style
min_style	     cg
min_modify	     dmax 0.01 line quadratic

# Setup output
thermo		1
thermo_style custom step temp pe press pxx pyy pzz pxy pxz pyz lx ly lz vol
thermo_modify norm no

# Negative deformation

variable delta equal -1e-06*7.2929321356803
variable deltaxy equal -1e-06*xy
variable deltaxz equal -1e-06*xz
variable deltayz equal -1e-06*yz
change_box all xy delta -7.2929321356803e-06 remap units box
Changing box ...
  triclinic box = (2.2117403 2.3877339 -50.790508) to (9.8566597 9.6806661 113.62331) with tilt (-7.2929321e-06 0 0)

# Relax atoms positions

minimize 0 1e-10 100 1000
Last active /omp style is pair_style tersoff/omp
Step          Temp          PotEng         Press           Pxx            Pyy            Pzz            Pxy            Pxz            Pyz             Lx             Ly             Lz           Volume
21346   0             -1583.0303      72.221979     -94.215345      281.24379      29.637495     -18789.74       4407.7454     -22.724801      7.6449194      7.2929321      164.41382      9166.7079
Loop time of 0.347542 on 6 procs for 100 steps with 256 atoms

Minimization stats:
  Stopping criterion = max iterations
  Energy initial, next-to-last, final =
  Force two-norm initial, final = 1.3507125 1.1842762
  Force max component initial, final = 0.18713656 0.43254374
  Final line search alpha, max atom move = 0.024695565 0.010681912
  Iterations, force evaluations = 100 200

# Obtain new stress tensor

variable tmp equal pxx
variable pxx1 equal -674.139956921832
variable tmp equal pyy
variable pyy1 equal -2733.72153860334
variable tmp equal pzz
variable pzz1 equal 810.438504376441
variable tmp equal pxy
variable pxy1 equal -18128.852552105
variable tmp equal pxz
variable pxz1 equal 4288.58370691257
variable tmp equal pyz
variable pyz1 equal 552.445656589272

# Compute elastic constant from pressure tensor

variable C1neg equal -58633.6501854966
variable C2neg equal -302069.356061971
variable C3neg equal 71304.5126202247
variable C4neg equal 59211.9361976384
variable C5neg equal -10804.598594218
variable C6neg equal 65751.2795087801

# Reset box and simulation parameters

clear
package omp 0
using multi-threaded neighbor list subroutines
box tilt large

The 'box' command has been removed and will be ignored

read_restart restart.equil
Reading restart file ...
  restart file = 7 Feb 2024, LAMMPS = 7 Feb 2024
  restoring atom style atomic from restart
  triclinic box = (2.2117403 2.3877339 -50.790508) to (9.8566597 9.6806661 113.62331) with tilt (0 0 0)
  pair style tersoff stores no restart info
  256 atoms
  read_restart CPU = 0.000 seconds
include potential.mod
# NOTE: This script can be modified for different pair styles
# See in.elastic for more info.

# Choose potential
pair_style tersoff
pair_coeff * * WB.tersoff W B

# Setup neighbor style
neighbor 1.0 nsq
neigh_modify once no every 1 delay 0 check yes

# Setup minimization style
min_style	     cg
min_modify	     dmax 0.01 line quadratic

# Setup output
thermo		1
thermo_style custom step temp pe press pxx pyy pzz pxy pxz pyz lx ly lz vol
thermo_modify norm no

# Positive deformation

variable delta equal 1e-06*7.2929321356803
variable deltaxy equal 1e-06*xy
variable deltaxz equal 1e-06*xz
variable deltayz equal 1e-06*yz
change_box all xy delta 7.2929321356803e-06 remap units box
Changing box ...
  triclinic box = (2.2117403 2.3877339 -50.790508) to (9.8566597 9.6806661 113.62331) with tilt (7.2929321e-06 0 0)

# Relax atoms positions

minimize 0 1e-10 100 1000
Last active /omp style is pair_style tersoff/omp
Step          Temp          PotEng         Press           Pxx            Pyy            Pzz            Pxy            Pxz            Pyz             Lx             Ly             Lz           Volume
21346   0             -1583.0301      71.480621     -92.660381      281.53277      25.569475     -18794.971      4407.2477     -21.764328      7.6449194      7.2929321      164.41382      9166.7079
Loop time of 0.376754 on 6 procs for 100 steps with 256 atoms

Minimization stats:
  Stopping criterion = max iterations
  Energy initial, next-to-last, final =
  Force two-norm initial, final = 1.3510285 1.0920838
  Force max component initial, final = 0.18713065 0.14910574
  Final line search alpha, max atom move = 0.016094522 0.0023997857
  Iterations, force evaluations = 100 203

# Obtain new stress tensor

variable tmp equal pe
variable e1 equal -1583.2924220747
variable tmp equal press
variable p1 equal -630.9234892314
variable tmp equal pxx
variable pxx1 equal -487.010184931402
variable tmp equal pyy
variable pyy1 equal -1871.85737035772
variable tmp equal pzz
variable pzz1 equal 466.097087594917
variable tmp equal pxy
variable pxy1 equal -18322.9774457152
variable tmp equal pxz
variable pxz1 equal 4373.63327255142
variable tmp equal pyz
variable pyz1 equal 371.406282244899

# Compute elastic constant from pressure tensor

variable C1pos equal 39920.6729864536
variable C2pos equal 215882.939237409
variable C3pos equal -36870.3709420723
variable C4pos equal -41107.9987632011
variable C5pos equal 2299.64203033296
variable C6pos equal -46338.7901477599

# Combine positive and negative

variable C16 equal 0.5*(-58633.6501854966+39920.6729864536)
variable C26 equal 0.5*(-302069.356061971+215882.939237409)
variable C36 equal 0.5*(71304.5126202247+-36870.3709420723)
variable C46 equal 0.5*(59211.9361976384+-41107.9987632011)
variable C56 equal 0.5*(-10804.598594218+2299.64203033296)
variable C66 equal 0.5*(65751.2795087801+-46338.7901477599)

# Delete dir to make sure it is not reused

variable dir delete

# Output final values

variable C11all equal -1460.1478355876
variable C22all equal 15379.9599640215
variable C33all equal 7426.18692647

variable C12all equal 0.5*(-504.433393465202+-38313.947006522)
variable C13all equal 0.5*(513.740853374999+-40457.7463636099)
variable C23all equal 0.5*(-16931.594828307+8571.14268490607)

variable C44all equal -4338.2899512581
variable C55all equal 1744.72911140547
variable C66all equal 9706.2446805101

variable C14all equal 0.5*(2186.0170155536+18153.6499822753)
variable C15all equal 0.5*(96.8509034311501+118.648910343)
variable C16all equal 0.5*(-9356.4885995215+7412.87997116995)

variable C24all equal 0.5*(28011.5724628835+-3880.65233004075)
variable C25all equal 0.5*(14839.503372927+1809.18855331052)
variable C26all equal 0.5*(-43093.208412281+-3556.5582660749)

variable C34all equal 0.5*(1452.9697881298+10962.3330847764)
variable C35all equal 0.5*(30707.3876672056+896.45518297798)
variable C36all equal 0.5*(17217.0708390762+2999.99729198005)

variable C45all equal 0.5*(-3433.29154440085+4812.35125887002)
variable C46all equal 0.5*(9051.96871721865+-7710.0778471251)
variable C56all equal 0.5*(-4252.47828194252+-3089.16716556995)

C11: -1460.1478355876
C12: -504.433393465202
C44: -4338.2899512581
