LAMMPS (7 Feb 2024 - Development - patch_7Feb2024_update1-197-g554f53decb)
clear
units metal
dimension 3
boundary p p p

# Atom definition
atom_style atomic
atom_modify map array

# read_data WB2-P6_3-mmc.lmpstr
read_data WB2_P6.lmp
Reading data file ...
  triclinic box = (0 0 0) to (2.982 2.5824878 13.87) with tilt (-1.491 0 0)
  reading atoms ...
  12 atoms
replicate 2 2 5
Replication is creating a 2x2x5 = 20 times larger system...
  triclinic box = (0 0 0) to (5.964 5.1649755 69.35) with tilt (-2.982 0 0)
  240 atoms
  replicate CPU = 0.000 seconds

# Define mass and interactions (from lit.)
pair_style tersoff
pair_coeff * * WB.tersoff W B

# Neighbors and thermo settings
neighbor 2.0 bin
neigh_modify delay 1 check yes

compute eng all pe/atom
compute eatoms all reduce sum c_eng

reset_timestep 0
# The vmax keyword can be used to limit the fractional change in the
# volume of the simulation box that can occur in one iteration of the
# minimizer. If the pressure is not settling down during the
# minimization this can be because the volume is fluctuating too much.
# The specified fraction must be greater than 0.0 and should be << 1.0.
fix box_relax all box/relax aniso 0.0 vmax 0.001

# Set the thermo style to collect data every 10 time steps
thermo 10
thermo_style custom step pe vol press cella cellc c_eatoms

# Dump command to visualize in OVITO
dump 1 all atom 10 dump.WB2.lammpstrj

# Minimisation algorithms:
#   cg = Conjugate Gradient
#   sd = Steepest Descent
# Typically, steepest descent will not converge as quickly as CG, but may
# be more robust in some situations.

# Run energy minimisation algorithms. Use multiple to guarantee a stable
# phase. Minimize args:
#   etol(stop tolerance: energy)
#   ftol(stop tolerance: force)
#   maxiter(max iters of minimiser)
#   maxeval(max # of F/E calcs)

min_style cg
minimize 1.0e-4 1.0e-6 1000 10000
 (src/min.cpp:219)
Step         PotEng         Volume         Press          Cella          Cellc         c_eatoms
0   28848.544      2136.2514      41766300       5.964          69.35          28848.544
Averages over the last 51 of 101 rows, steps 500 to 1000:
PotEng Volume Press Cella Cellc c_eatoms
113.713 5527.52 1.16371e+06 7.30029 120.808 113.713
Loop time of 4.61661 on 1 procs for 1000 steps with 240 atoms

Minimization stats:
  Stopping criterion = max iterations
  Energy initial, next-to-last, final =
  Force two-norm initial, final = 102889.39 1307.1394
  Force max component initial, final = 84814.036 879.31471
  Final line search alpha, max atom move = 1.1376433e-06 0.0010003465
  Iterations, force evaluations = 1000 1000

min_style sd
minimize 1.0e-4 1.0e-6 1000 10000
 (src/min.cpp:219)
Step         PotEng         Volume         Press          Cella          Cellc         c_eatoms
1000  -712.95472      4638.3956     -118003.18      6.2976182      135.30371     -712.95472
Loop time of 1.33631 on 1 procs for 230 steps with 240 atoms

Minimization stats:
  Stopping criterion = energy tolerance
  Energy initial, next-to-last, final =
  Force two-norm initial, final = 1540.9466 135.07016
  Force max component initial, final = 926.73985 97.863753
  Final line search alpha, max atom move = 1.3268316e-05 0.0012984872
  Iterations, force evaluations = 230 286

# min_style cg
# minimize 1.0e-4 1.0e-6 1000 10000
# min_style cg
# minimize 1.0e-4 1.0e-6 1000 10000

unfix box_relax

# Divide sim box by periodic multiple
variable        a equal cella/2
variable        b equal cellb/2
variable        c equal cellc/5

variable        natoms equal "count(all)"
variable        teng equal "c_eatoms"
variable        ecoh equal "v_teng/v_natoms"

LA: 2.66483516495656
LB: 2.66387207802818
LC: 28.4671892229766
COHENERGY: -4.39794168392621

# ELASTIC CONSTANT

variable up equal 1.0e-6
variable atomjiggle equal 1.0e-5
variable cfac equal 1.0e-4
variable cunits string GPa
variable etol equal 0.0
variable ftol equal 1.0e-10
variable maxiter equal 100
variable maxeval equal 1000
variable dmax equal 1.0e-2

include init.mod
# NOTE: This script can be modified for different atomic structures,
# units, etc. See in.elastic for more info.

# Define the finite deformation size. Try several values of this
# variable to verify that results do not depend on it.
variable up equal 1.0e-6

# Define the amount of random jiggle for atoms
# This prevents atoms from staying on saddle points
variable atomjiggle equal 1.0e-5

# Uncomment one of these blocks, depending on what units
# you are using in LAMMPS and for output

# metal units, elastic constants in eV/A^3
#units		metal
#variable cfac equal 6.2414e-7
#variable cunits string eV/A^3

# metal units, elastic constants in GPa
# units	metal already defined earlier
variable cfac equal 1.0e-4
variable cunits string GPa

# real units, elastic constants in GPa
#units		real
#variable cfac equal 1.01325e-4
#variable cunits string GPa

# Define minimization parameters
variable etol equal 0.0
# variable ftol equal 1.0e-10
variable maxiter equal 100
variable maxeval equal 1000
variable dmax equal 1.0e-2

# boundary p p p already defined earlier

# read_data WB2_P6.lmp defined earlier
include potential.mod
# NOTE: This script can be modified for different pair styles
# See in.elastic for more info.

# Choose potential
pair_style tersoff
pair_coeff * * WB.tersoff W B

# Setup neighbor style
neighbor 1.0 nsq
neigh_modify once no every 1 delay 0 check yes

# Setup minimization style
min_style	cg
min_modify dmax 0.01 line quadratic

# Setup output
thermo 1
thermo_style custom step temp pe press pxx pyy pzz pxy pxz pyz lx ly lz vol
thermo_modify norm no

dump 2 all atom 10 dump.WB2-l.lammpstrj

# Compute initial state
fix 3 all box/relax aniso 1.0
minimize 0 1e-10 100 1000
 (src/min.cpp:219)
Step          Temp          PotEng         Press           Pxx            Pyy            Pzz            Pxy            Pxz            Pyz             Lx             Ly             Lz           Volume
1230   0             -1055.506      -20131.061     -6551.79       -6716.7379     -47124.656     -3829.4481      6965.7363      14978.421      5.3296703      4.6139618      142.33595      3500.1683
Loop time of 0.475784 on 1 procs for 100 steps with 240 atoms

Minimization stats:
  Stopping criterion = max iterations
  Energy initial, next-to-last, final =
  Force two-norm initial, final = 138.2041 63.086588
  Force max component initial, final = 102.95228 9.1757264
  Final line search alpha, max atom move = 1.9175603e-05 0.00017595009
  Iterations, force evaluations = 100 100

variable tmp equal pxx
variable pxx0 equal 1328.11684381497
variable tmp equal pyy
variable pyy0 equal 1383.85617808052
variable tmp equal pzz
variable pzz0 equal -4149.58274944018
variable tmp equal pyz
variable pyz0 equal 11895.5589659893
variable tmp equal pxz
variable pxz0 equal 5131.62782305218
variable tmp equal pxy
variable pxy0 equal -3459.58313920388

variable tmp equal lx
variable lx0 equal 5.36154258104852
variable tmp equal ly
variable ly0 equal 4.64127589316208
variable tmp equal lz
variable lz0 equal 142.108568010266

# These formulas define the derivatives w.r.t. strain components
# Constants uses $, variables use v_
variable d1 equal -(v_pxx1-1328.11684381497)/(v_delta/v_len0)*0.0001
variable d2 equal -(v_pyy1-1383.85617808052)/(v_delta/v_len0)*0.0001
variable d3 equal -(v_pzz1--4149.58274944018)/(v_delta/v_len0)*0.0001
variable d4 equal -(v_pyz1-11895.5589659893)/(v_delta/v_len0)*0.0001
variable d5 equal -(v_pxz1-5131.62782305218)/(v_delta/v_len0)*0.0001
variable d6 equal -(v_pxy1--3459.58313920388)/(v_delta/v_len0)*0.0001

displace_atoms all random 1e-05 1e-05 1e-05 87287 units box
Displacing atoms ...

# Write restart
unfix 3
write_restart restart.equil
System init for write_restart ...

variable dir equal 1
include displace.mod
# NOTE: This script should not need to be
# modified. See in.elastic for more info.
#
# Find which reference length to use

variable len0 equal 5.36154258104852

# Reset box and simulation parameters

clear
box tilt large

The 'box' command has been removed and will be ignored

read_restart restart.equil
Reading restart file ...
  restart file = 7 Feb 2024, LAMMPS = 7 Feb 2024
  restoring atom style atomic from restart
  triclinic box = (0.30122871 0.26184981 -36.379284) to (5.6627713 4.9031257 105.72928) with tilt (-2.6796419 0 0)
  pair style tersoff stores no restart info
  240 atoms
  read_restart CPU = 0.000 seconds
include potential.mod
# NOTE: This script can be modified for different pair styles
# See in.elastic for more info.

# Choose potential
pair_style tersoff
pair_coeff * * WB.tersoff W B

# Setup neighbor style
neighbor 1.0 nsq
neigh_modify once no every 1 delay 0 check yes

# Setup minimization style
min_style	cg
min_modify dmax 0.01 line quadratic

# Setup output
thermo 1
thermo_style custom step temp pe press pxx pyy pzz pxy pxz pyz lx ly lz vol
thermo_modify norm no

dump 2 all atom 10 dump.WB2-l.lammpstrj

# Negative deformation

variable delta equal -1e-06*5.36154258104852
variable deltaxy equal -1e-06*xy
variable deltaxz equal -1e-06*xz
variable deltayz equal -1e-06*yz
change_box all x delta 0 -5.36154258104852e-06 xy delta 2.67964188630065e-06 xz delta -0 remap units box
Changing box ...
  triclinic box = (0.30122871 0.26184981 -36.379284) to (5.6627659 4.9031257 105.72928) with tilt (-2.6796419 0 0)
  triclinic box = (0.30122871 0.26184981 -36.379284) to (5.6627659 4.9031257 105.72928) with tilt (-2.6796392 0 0)
  triclinic box = (0.30122871 0.26184981 -36.379284) to (5.6627659 4.9031257 105.72928) with tilt (-2.6796392 0 0)

# Relax atoms positions

minimize 0 1e-10 100 1000
Step          Temp          PotEng         Press           Pxx            Pyy            Pzz            Pxy            Pxz            Pyz             Lx             Ly             Lz           Volume
1330   0             -1062.1797     -478.49907      1332.9419      1388.2178     -4156.6569     -3462.7967      5128.8682      11898.47       5.3615372      4.6412759      142.10857      3536.2827
Loop time of 0.369595 on 1 procs for 100 steps with 240 atoms

Minimization stats:
  Stopping criterion = max iterations
  Energy initial, next-to-last, final =
  Force two-norm initial, final = 62.271206 8.7705475
  Force max component initial, final = 7.2699932 1.8839745
  Final line search alpha, max atom move = 0.00094844101 0.0017868386
  Iterations, force evaluations = 100 104

# Obtain new stress tensor

variable tmp equal pxx
variable pxx1 equal 13879.2522659852
variable tmp equal pyy
variable pyy1 equal 24694.4690094847
variable tmp equal pzz
variable pzz1 equal -6909.48508654466
variable tmp equal pxy
variable pxy1 equal -1142.78798760858
variable tmp equal pxz
variable pxz1 equal 3823.07322370105
variable tmp equal pyz
variable pyz1 equal 10169.7659613737

# Compute elastic constant from pressure tensor

variable C1neg equal 1255113.54221702
variable C2neg equal 2331061.28314042
variable C3neg equal -275990.233710448
variable C4neg equal -172579.30046156
variable C5neg equal -130855.459935113
variable C6neg equal 231679.51515953

# Reset box and simulation parameters

clear
box tilt large

The 'box' command has been removed and will be ignored

read_restart restart.equil
Reading restart file ...
  restart file = 7 Feb 2024, LAMMPS = 7 Feb 2024
  restoring atom style atomic from restart
  triclinic box = (0.30122871 0.26184981 -36.379284) to (5.6627713 4.9031257 105.72928) with tilt (-2.6796419 0 0)
  pair style tersoff stores no restart info
  240 atoms
  read_restart CPU = 0.000 seconds
include potential.mod
# NOTE: This script can be modified for different pair styles
# See in.elastic for more info.

# Choose potential
pair_style tersoff
pair_coeff * * WB.tersoff W B

# Setup neighbor style
neighbor 1.0 nsq
neigh_modify once no every 1 delay 0 check yes

# Setup minimization style
min_style	cg
min_modify dmax 0.01 line quadratic

# Setup output
thermo 1
thermo_style custom step temp pe press pxx pyy pzz pxy pxz pyz lx ly lz vol
thermo_modify norm no

dump 2 all atom 10 dump.WB2-l.lammpstrj

# Positive deformation

variable delta equal 1e-06*5.36154258104852
variable deltaxy equal 1e-06*xy
variable deltaxz equal 1e-06*xz
variable deltayz equal 1e-06*yz
change_box all x delta 0 5.36154258104852e-06 xy delta -2.67964188630065e-06 xz delta 0 remap units box
Changing box ...
  triclinic box = (0.30122871 0.26184981 -36.379284) to (5.6627767 4.9031257 105.72928) with tilt (-2.6796419 0 0)
  triclinic box = (0.30122871 0.26184981 -36.379284) to (5.6627767 4.9031257 105.72928) with tilt (-2.6796446 0 0)
  triclinic box = (0.30122871 0.26184981 -36.379284) to (5.6627767 4.9031257 105.72928) with tilt (-2.6796446 0 0)

# Relax atoms positions

minimize 0 1e-10 100 1000
Step          Temp          PotEng         Press           Pxx            Pyy            Pzz            Pxy            Pxz            Pyz             Lx             Ly             Lz           Volume
1330   0             -1062.1797     -496.05267      1315.6059      1381.1096     -4184.8736     -3462.5629      5127.9824      11896.947      5.3615479      4.6412759      142.10857      3536.2897
Loop time of 0.37281 on 1 procs for 100 steps with 240 atoms

Minimization stats:
  Stopping criterion = max iterations
  Energy initial, next-to-last, final =
  Force two-norm initial, final = 62.27421 8.7714379
  Force max component initial, final = 7.2703754 1.8827882
  Final line search alpha, max atom move = 0.00096299382 0.0018131134
  Iterations, force evaluations = 100 104

# Obtain new stress tensor

variable tmp equal pe
variable e1 equal -1247.93198946411
variable tmp equal press
variable p1 equal 10547.599186509
variable tmp equal pxx
variable pxx1 equal 13875.4183412648
variable tmp equal pyy
variable pyy1 equal 24688.2688066958
variable tmp equal pzz
variable pzz1 equal -6920.88958843351
variable tmp equal pxy
variable pxy1 equal -1142.82260458966
variable tmp equal pxz
variable pxz1 equal 3823.33179312459
variable tmp equal pyz
variable pyz1 equal 10174.8147349023

# Compute elastic constant from pressure tensor

variable C1pos equal -1254730.14974498
variable C2pos equal -2330441.26286153
variable C3pos equal 277130.683899333
variable C4pos equal 172074.4231087
variable C5pos equal 130829.602992759
variable C6pos equal -231676.053461422

# Combine positive and negative

variable C11 equal 0.5*(1255113.54221702+-1254730.14974498)
variable C21 equal 0.5*(2331061.28314042+-2330441.26286153)
variable C31 equal 0.5*(-275990.233710448+277130.683899333)
variable C41 equal 0.5*(-172579.30046156+172074.4231087)
variable C51 equal 0.5*(-130855.459935113+130829.602992759)
variable C61 equal 0.5*(231679.51515953+-231676.053461422)

# Delete dir to make sure it is not reused

variable dir delete

# uyy Perturbation
variable dir equal 2
include displace.mod
# NOTE: This script should not need to be
# modified. See in.elastic for more info.
#
# Find which reference length to use

variable len0 equal 4.64127589316208

# Reset box and simulation parameters

clear
box tilt large

The 'box' command has been removed and will be ignored

read_restart restart.equil
Reading restart file ...
  restart file = 7 Feb 2024, LAMMPS = 7 Feb 2024
  restoring atom style atomic from restart
  triclinic box = (0.30122871 0.26184981 -36.379284) to (5.6627713 4.9031257 105.72928) with tilt (-2.6796419 0 0)
  pair style tersoff stores no restart info
  240 atoms
  read_restart CPU = 0.000 seconds
include potential.mod
# NOTE: This script can be modified for different pair styles
# See in.elastic for more info.

# Choose potential
pair_style tersoff
pair_coeff * * WB.tersoff W B

# Setup neighbor style
neighbor 1.0 nsq
neigh_modify once no every 1 delay 0 check yes

# Setup minimization style
min_style	cg
min_modify dmax 0.01 line quadratic

# Setup output
thermo 1
thermo_style custom step temp pe press pxx pyy pzz pxy pxz pyz lx ly lz vol
thermo_modify norm no

dump 2 all atom 10 dump.WB2-l.lammpstrj

# Negative deformation

variable delta equal -1e-06*4.64127589316208
variable deltaxy equal -1e-06*xy
variable deltaxz equal -1e-06*xz
variable deltayz equal -1e-06*yz
change_box all y delta 0 -4.64127589316208e-06 yz delta -0 remap units box
Changing box ...
  triclinic box = (0.30122871 0.26184981 -36.379284) to (5.6627713 4.9031211 105.72928) with tilt (-2.6796419 0 0)
  triclinic box = (0.30122871 0.26184981 -36.379284) to (5.6627713 4.9031211 105.72928) with tilt (-2.6796419 0 0)

# Relax atoms positions

minimize 0 1e-10 100 1000
Step          Temp          PotEng         Press           Pxx            Pyy            Pzz            Pxy            Pxz            Pyz             Lx             Ly             Lz           Volume
1330   0             -1062.1797     -478.77446      1327.8279      1393.172      -4157.3233     -3462.7189      5128.5769      11897.997      5.3615426      4.6412713      142.10857      3536.2827
Loop time of 0.374323 on 1 procs for 100 steps with 240 atoms

Minimization stats:
  Stopping criterion = max iterations
  Energy initial, next-to-last, final =
  Force two-norm initial, final = 62.271203 8.7707846
  Force max component initial, final = 7.2699927 1.8838137
  Final line search alpha, max atom move = 0.00095086442 0.0017912514
  Iterations, force evaluations = 100 104

# Obtain new stress tensor

variable tmp equal pxx
variable pxx1 equal 13879.0705976539
variable tmp equal pyy
variable pyy1 equal 24694.4059734017
variable tmp equal pzz
variable pzz1 equal -6911.59140564156
variable tmp equal pxy
variable pxy1 equal -1142.91509060443
variable tmp equal pxz
variable pxz1 equal 3823.65643971467
variable tmp equal pyz
variable pyz1 equal 10170.2420731747

# Compute elastic constant from pressure tensor

variable C1neg equal 1255095.37538389
variable C2neg equal 2331054.97953212
variable C3neg equal -276200.865620138
variable C4neg equal -172531.68928146
variable C5neg equal -130797.138333751
variable C6neg equal 231666.804859945

# Reset box and simulation parameters

clear
box tilt large

The 'box' command has been removed and will be ignored

read_restart restart.equil
Reading restart file ...
  restart file = 7 Feb 2024, LAMMPS = 7 Feb 2024
  restoring atom style atomic from restart
  triclinic box = (0.30122871 0.26184981 -36.379284) to (5.6627713 4.9031257 105.72928) with tilt (-2.6796419 0 0)
  pair style tersoff stores no restart info
  240 atoms
  read_restart CPU = 0.000 seconds
include potential.mod
# NOTE: This script can be modified for different pair styles
# See in.elastic for more info.

# Choose potential
pair_style tersoff
pair_coeff * * WB.tersoff W B

# Setup neighbor style
neighbor 1.0 nsq
neigh_modify once no every 1 delay 0 check yes

# Setup minimization style
min_style	cg
min_modify dmax 0.01 line quadratic

# Setup output
thermo 1
thermo_style custom step temp pe press pxx pyy pzz pxy pxz pyz lx ly lz vol
thermo_modify norm no

dump 2 all atom 10 dump.WB2-l.lammpstrj

# Positive deformation

variable delta equal 1e-06*4.64127589316208
variable deltaxy equal 1e-06*xy
variable deltaxz equal 1e-06*xz
variable deltayz equal 1e-06*yz
change_box all y delta 0 4.64127589316208e-06 yz delta 0 remap units box
Changing box ...
  triclinic box = (0.30122871 0.26184981 -36.379284) to (5.6627713 4.9031303 105.72928) with tilt (-2.6796419 0 0)
  triclinic box = (0.30122871 0.26184981 -36.379284) to (5.6627713 4.9031303 105.72928) with tilt (-2.6796419 0 0)

# Relax atoms positions

minimize 0 1e-10 100 1000
Step          Temp          PotEng         Press           Pxx            Pyy            Pzz            Pxy            Pxz            Pyz             Lx             Ly             Lz           Volume
1330   0             -1062.1797     -495.77729      1320.7199      1376.1554     -4184.2072     -3462.6407      5128.2736      11897.42       5.3615426      4.6412805      142.10857      3536.2897
Loop time of 0.336431 on 1 procs for 100 steps with 240 atoms

Minimization stats:
  Stopping criterion = max iterations
  Energy initial, next-to-last, final =
  Force two-norm initial, final = 62.274213 8.771201
  Force max component initial, final = 7.2703759 1.8829512
  Final line search alpha, max atom move = 0.00096055036 0.0018086695
  Iterations, force evaluations = 100 104

# Obtain new stress tensor

variable tmp equal pe
variable e1 equal -1247.93214767636
variable tmp equal press
variable p1 equal 10548.3822908974
variable tmp equal pxx
variable pxx1 equal 13875.6014490615
variable tmp equal pyy
variable pyy1 equal 24688.3332837404
variable tmp equal pzz
variable pzz1 equal -6918.78786010976
variable tmp equal pxy
variable pxy1 equal -1142.69519851148
variable tmp equal pxz
variable pxz1 equal 3822.74883250478
variable tmp equal pyz
variable pyz1 equal 10174.3382099383

# Compute elastic constant from pressure tensor

variable C1pos equal -1254748.46052465
variable C2pos equal -2330447.71056599
variable C3pos equal 276920.511066958
variable C4pos equal 172122.0756051
variable C5pos equal 130887.89905474
variable C6pos equal -231688.79406924

# Combine positive and negative

variable C12 equal 0.5*(1255095.37538389+-1254748.46052465)
variable C22 equal 0.5*(2331054.97953212+-2330447.71056599)
variable C32 equal 0.5*(-276200.865620138+276920.511066958)
variable C42 equal 0.5*(-172531.68928146+172122.0756051)
variable C52 equal 0.5*(-130797.138333751+130887.89905474)
variable C62 equal 0.5*(231666.804859945+-231688.79406924)

# Delete dir to make sure it is not reused

variable dir delete

# uzz Perturbation
variable dir equal 3
include displace.mod
# NOTE: This script should not need to be
# modified. See in.elastic for more info.
#
# Find which reference length to use

variable len0 equal 142.108568010266

# Reset box and simulation parameters

clear
box tilt large

The 'box' command has been removed and will be ignored

read_restart restart.equil
Reading restart file ...
  restart file = 7 Feb 2024, LAMMPS = 7 Feb 2024
  restoring atom style atomic from restart
  triclinic box = (0.30122871 0.26184981 -36.379284) to (5.6627713 4.9031257 105.72928) with tilt (-2.6796419 0 0)
  pair style tersoff stores no restart info
  240 atoms
  read_restart CPU = 0.000 seconds
include potential.mod
# NOTE: This script can be modified for different pair styles
# See in.elastic for more info.

# Choose potential
pair_style tersoff
pair_coeff * * WB.tersoff W B

# Setup neighbor style
neighbor 1.0 nsq
neigh_modify once no every 1 delay 0 check yes

# Setup minimization style
min_style	cg
min_modify dmax 0.01 line quadratic

# Setup output
thermo 1
thermo_style custom step temp pe press pxx pyy pzz pxy pxz pyz lx ly lz vol
thermo_modify norm no

dump 2 all atom 10 dump.WB2-l.lammpstrj

# Negative deformation

variable delta equal -1e-06*142.108568010266
variable deltaxy equal -1e-06*xy
variable deltaxz equal -1e-06*xz
variable deltayz equal -1e-06*yz
change_box all z delta 0 -0.000142108568010266 remap units box
Changing box ...
  triclinic box = (0.30122871 0.26184981 -36.379284) to (5.6627713 4.9031257 105.72914) with tilt (-2.6796419 0 0)

# Relax atoms positions

minimize 0 1e-10 100 1000
Step          Temp          PotEng         Press           Pxx            Pyy            Pzz            Pxy            Pxz            Pyz             Lx             Ly             Lz           Volume
1330   0             -1062.1797     -451.22161      1338.3879      1398.1113     -4090.164      -3463.3105      5130.8827      11902.03       5.3615426      4.6412759      142.10843      3536.2827
Loop time of 0.346028 on 1 procs for 100 steps with 240 atoms

Minimization stats:
  Stopping criterion = max iterations
  Energy initial, next-to-last, final =
  Force two-norm initial, final = 62.270787 8.7692304
  Force max component initial, final = 7.2698038 1.8855396
  Final line search alpha, max atom move = 0.00092949828 0.0017526059
  Iterations, force evaluations = 100 104

# Obtain new stress tensor

variable tmp equal pxx
variable pxx1 equal 13876.0595344667
variable tmp equal pyy
variable pyy1 equal 24695.4829375177
variable tmp equal pzz
variable pzz1 equal -6895.27459474645
variable tmp equal pxy
variable pxy1 equal -1142.9903734082
variable tmp equal pxz
variable pxz1 equal 3823.63583384725
variable tmp equal pyz
variable pyz1 equal 10162.3950412817

# Compute elastic constant from pressure tensor

variable C1neg equal 1254794.26906517
variable C2neg equal 2331162.67594372
variable C3neg equal -274569.184530627
variable C4neg equal -173316.39247076
variable C5neg equal -130799.198920493
variable C6neg equal 231659.276579568

# Reset box and simulation parameters

clear
box tilt large

The 'box' command has been removed and will be ignored

read_restart restart.equil
Reading restart file ...
  restart file = 7 Feb 2024, LAMMPS = 7 Feb 2024
  restoring atom style atomic from restart
  triclinic box = (0.30122871 0.26184981 -36.379284) to (5.6627713 4.9031257 105.72928) with tilt (-2.6796419 0 0)
  pair style tersoff stores no restart info
  240 atoms
  read_restart CPU = 0.000 seconds
include potential.mod
# NOTE: This script can be modified for different pair styles
# See in.elastic for more info.

# Choose potential
pair_style tersoff
pair_coeff * * WB.tersoff W B

# Setup neighbor style
neighbor 1.0 nsq
neigh_modify once no every 1 delay 0 check yes

# Setup minimization style
min_style	cg
min_modify dmax 0.01 line quadratic

# Setup output
thermo 1
thermo_style custom step temp pe press pxx pyy pzz pxy pxz pyz lx ly lz vol
thermo_modify norm no

dump 2 all atom 10 dump.WB2-l.lammpstrj

# Positive deformation

variable delta equal 1e-06*142.108568010266
variable deltaxy equal 1e-06*xy
variable deltaxz equal 1e-06*xz
variable deltayz equal 1e-06*yz
change_box all z delta 0 0.000142108568010266 remap units box
Changing box ...
  triclinic box = (0.30122871 0.26184981 -36.379284) to (5.6627713 4.9031257 105.72943) with tilt (-2.6796419 0 0)

# Relax atoms positions

minimize 0 1e-10 100 1000
Step          Temp          PotEng         Press           Pxx            Pyy            Pzz            Pxy            Pxz            Pyz             Lx             Ly             Lz           Volume
1330   0             -1062.1797     -523.32953      1310.1602      1371.2163     -4251.3651     -3462.0491      5125.9679      11893.387      5.3615426      4.6412759      142.10871      3536.2897
Loop time of 0.354578 on 1 procs for 100 steps with 240 atoms

Minimization stats:
  Stopping criterion = max iterations
  Energy initial, next-to-last, final =
  Force two-norm initial, final = 62.274629 8.7727491
  Force max component initial, final = 7.2705647 1.8811757
  Final line search alpha, max atom move = 0.00098235619 0.0018479845
  Iterations, force evaluations = 100 104

# Obtain new stress tensor

variable tmp equal pe
variable e1 equal -1247.93174984487
variable tmp equal press
variable p1 equal 10543.6109423522
variable tmp equal pxx
variable pxx1 equal 13878.5818884595
variable tmp equal pyy
variable pyy1 equal 24687.2297288718
variable tmp equal pzz
variable pzz1 equal -6934.97879027475
variable tmp equal pxy
variable pxy1 equal -1142.62600849481
variable tmp equal pxz
variable pxz1 equal 3822.76091864405
variable tmp equal pyz
variable pyz1 equal 10182.1852357338

# Compute elastic constant from pressure tensor

variable C1pos equal -1255046.50446445
variable C2pos equal -2330337.35507913
variable C3pos equal 278539.604083457
variable C4pos equal 171337.37302555
variable C5pos equal 130886.690440813
variable C6pos equal -231695.713070907

# Combine positive and negative

variable C13 equal 0.5*(1254794.26906517+-1255046.50446445)
variable C23 equal 0.5*(2331162.67594372+-2330337.35507913)
variable C33 equal 0.5*(-274569.184530627+278539.604083457)
variable C43 equal 0.5*(-173316.39247076+171337.37302555)
variable C53 equal 0.5*(-130799.198920493+130886.690440813)
variable C63 equal 0.5*(231659.276579568+-231695.713070907)

# Delete dir to make sure it is not reused

variable dir delete

# uyz Perturbation
variable dir equal 4
include displace.mod
# NOTE: This script should not need to be
# modified. See in.elastic for more info.
#
# Find which reference length to use

variable len0 equal 142.108568010266

# Reset box and simulation parameters

clear
box tilt large

The 'box' command has been removed and will be ignored

read_restart restart.equil
Reading restart file ...
  restart file = 7 Feb 2024, LAMMPS = 7 Feb 2024
  restoring atom style atomic from restart
  triclinic box = (0.30122871 0.26184981 -36.379284) to (5.6627713 4.9031257 105.72928) with tilt (-2.6796419 0 0)
  pair style tersoff stores no restart info
  240 atoms
  read_restart CPU = 0.000 seconds
include potential.mod
# NOTE: This script can be modified for different pair styles
# See in.elastic for more info.

# Choose potential
pair_style tersoff
pair_coeff * * WB.tersoff W B

# Setup neighbor style
neighbor 1.0 nsq
neigh_modify once no every 1 delay 0 check yes

# Setup minimization style
min_style	cg
min_modify dmax 0.01 line quadratic

# Setup output
thermo 1
thermo_style custom step temp pe press pxx pyy pzz pxy pxz pyz lx ly lz vol
thermo_modify norm no

dump 2 all atom 10 dump.WB2-l.lammpstrj

# Negative deformation

variable delta equal -1e-06*142.108568010266
variable deltaxy equal -1e-06*xy
variable deltaxz equal -1e-06*xz
variable deltayz equal -1e-06*yz
change_box all yz delta -0.000142108568010266 remap units box
Changing box ...
  triclinic box = (0.30122871 0.26184981 -36.379284) to (5.6627713 4.9031257 105.72928) with tilt (-2.6796419 0 -0.00014210857)

# Relax atoms positions

minimize 0 1e-10 100 1000
Step          Temp          PotEng         Press           Pxx            Pyy            Pzz            Pxy            Pxz            Pyz             Lx             Ly             Lz           Volume
1330   0             -1062.1796     -485.49716      1325.0233      1384.9286     -4166.4433     -3462.5383      5127.798       11911.139      5.3615426      4.6412759      142.10857      3536.2862
Loop time of 0.386418 on 1 procs for 100 steps with 240 atoms

Minimization stats:
  Stopping criterion = max iterations
  Energy initial, next-to-last, final =
  Force two-norm initial, final = 62.272807 8.7703149
  Force max component initial, final = 7.2701848 1.8845228
  Final line search alpha, max atom move = 0.00094252843 0.0017762163
  Iterations, force evaluations = 100 104

# Obtain new stress tensor

variable tmp equal pxx
variable pxx1 equal 13876.2961501311
variable tmp equal pyy
variable pyy1 equal 24692.6653157572
variable tmp equal pzz
variable pzz1 equal -6906.24972527739
variable tmp equal pxy
variable pxy1 equal -1143.59417825961
variable tmp equal pxz
variable pxz1 equal 3825.64505636017
variable tmp equal pyz
variable pyz1 equal 10166.4135134434

# Compute elastic constant from pressure tensor

variable C1neg equal 1254817.93063161
variable C2neg equal 2330880.91376767
variable C3neg equal -275666.697583721
variable C4neg equal -172914.54525459
variable C5neg equal -130598.276669201
variable C6neg equal 231598.896094427

# Reset box and simulation parameters

clear
box tilt large

The 'box' command has been removed and will be ignored

read_restart restart.equil
Reading restart file ...
  restart file = 7 Feb 2024, LAMMPS = 7 Feb 2024
  restoring atom style atomic from restart
  triclinic box = (0.30122871 0.26184981 -36.379284) to (5.6627713 4.9031257 105.72928) with tilt (-2.6796419 0 0)
  pair style tersoff stores no restart info
  240 atoms
  read_restart CPU = 0.000 seconds
include potential.mod
# NOTE: This script can be modified for different pair styles
# See in.elastic for more info.

# Choose potential
pair_style tersoff
pair_coeff * * WB.tersoff W B

# Setup neighbor style
neighbor 1.0 nsq
neigh_modify once no every 1 delay 0 check yes

# Setup minimization style
min_style	cg
min_modify dmax 0.01 line quadratic

# Setup output
thermo 1
thermo_style custom step temp pe press pxx pyy pzz pxy pxz pyz lx ly lz vol
thermo_modify norm no

dump 2 all atom 10 dump.WB2-l.lammpstrj

# Positive deformation

variable delta equal 1e-06*142.108568010266
variable deltaxy equal 1e-06*xy
variable deltaxz equal 1e-06*xz
variable deltayz equal 1e-06*yz
change_box all yz delta 0.000142108568010266 remap units box
Changing box ...
  triclinic box = (0.30122871 0.26184981 -36.379284) to (5.6627713 4.9031257 105.72928) with tilt (-2.6796419 0 0.00014210857)

# Relax atoms positions

minimize 0 1e-10 100 1000
Step          Temp          PotEng         Press           Pxx            Pyy            Pzz            Pxy            Pxz            Pyz             Lx             Ly             Lz           Volume
1330   0             -1062.1797     -489.05459      1323.5245      1384.3988     -4175.0871     -3462.8213      5129.0525      11884.278      5.3615426      4.6412759      142.10857      3536.2862
Loop time of 0.352712 on 1 procs for 100 steps with 240 atoms

Minimization stats:
  Stopping criterion = max iterations
  Energy initial, next-to-last, final =
  Force two-norm initial, final = 62.272609 8.7716682
  Force max component initial, final = 7.2701837 1.8822297
  Final line search alpha, max atom move = 0.00096897533 0.0018238341
  Iterations, force evaluations = 100 104

# Obtain new stress tensor

variable tmp equal pe
variable e1 equal -1247.9318354643
variable tmp equal press
variable p1 equal 10548.1155348539
variable tmp equal pxx
variable pxx1 equal 13878.3707706934
variable tmp equal pyy
variable pyy1 equal 24690.0670112352
variable tmp equal pzz
variable pzz1 equal -6924.09117736696
variable tmp equal pxy
variable pxy1 equal -1142.01786402068
variable tmp equal pxz
variable pxz1 equal 3820.75629635538
variable tmp equal pyz
variable pyz1 equal 10178.1589533708

# Compute elastic constant from pressure tensor

variable C1pos equal -1255025.39268784
variable C2pos equal -2330621.08331547
variable C3pos equal 277450.842792678
variable C4pos equal 171740.00126185
variable C5pos equal 131087.15266968
variable C6pos equal -231756.52751832

# Combine positive and negative

variable C14 equal 0.5*(1254817.93063161+-1255025.39268784)
variable C24 equal 0.5*(2330880.91376767+-2330621.08331547)
variable C34 equal 0.5*(-275666.697583721+277450.842792678)
variable C44 equal 0.5*(-172914.54525459+171740.00126185)
variable C54 equal 0.5*(-130598.276669201+131087.15266968)
variable C64 equal 0.5*(231598.896094427+-231756.52751832)

# Delete dir to make sure it is not reused

variable dir delete

# uxz Perturbation
variable dir equal 5
include displace.mod
# NOTE: This script should not need to be
# modified. See in.elastic for more info.
#
# Find which reference length to use

variable len0 equal 142.108568010266

# Reset box and simulation parameters

clear
box tilt large

The 'box' command has been removed and will be ignored

read_restart restart.equil
Reading restart file ...
  restart file = 7 Feb 2024, LAMMPS = 7 Feb 2024
  restoring atom style atomic from restart
  triclinic box = (0.30122871 0.26184981 -36.379284) to (5.6627713 4.9031257 105.72928) with tilt (-2.6796419 0 0)
  pair style tersoff stores no restart info
  240 atoms
  read_restart CPU = 0.000 seconds
include potential.mod
# NOTE: This script can be modified for different pair styles
# See in.elastic for more info.

# Choose potential
pair_style tersoff
pair_coeff * * WB.tersoff W B

# Setup neighbor style
neighbor 1.0 nsq
neigh_modify once no every 1 delay 0 check yes

# Setup minimization style
min_style	cg
min_modify dmax 0.01 line quadratic

# Setup output
thermo 1
thermo_style custom step temp pe press pxx pyy pzz pxy pxz pyz lx ly lz vol
thermo_modify norm no

dump 2 all atom 10 dump.WB2-l.lammpstrj

# Negative deformation

variable delta equal -1e-06*142.108568010266
variable deltaxy equal -1e-06*xy
variable deltaxz equal -1e-06*xz
variable deltayz equal -1e-06*yz
change_box all xz delta -0.000142108568010266 remap units box
Changing box ...
  triclinic box = (0.30122871 0.26184981 -36.379284) to (5.6627713 4.9031257 105.72928) with tilt (-2.6796419 -0.00014210857 0)

# Relax atoms positions

minimize 0 1e-10 100 1000
Step          Temp          PotEng         Press           Pxx            Pyy            Pzz            Pxy            Pxz            Pyz             Lx             Ly             Lz           Volume
1330   0             -1062.1797     -486.26369      1324.7065      1384.8102     -4168.3078     -3461.9421      5142.5224      11897.081      5.3615426      4.6412759      142.10857      3536.2862
Loop time of 0.362362 on 1 procs for 100 steps with 240 atoms

Minimization stats:
  Stopping criterion = max iterations
  Energy initial, next-to-last, final =
  Force two-norm initial, final = 62.272752 8.7716431
  Force max component initial, final = 7.2701839 1.8827515
  Final line search alpha, max atom move = 0.00096320527 0.0018134762
  Iterations, force evaluations = 100 104

# Obtain new stress tensor

variable tmp equal pxx
variable pxx1 equal 13879.194100175
variable tmp equal pyy
variable pyy1 equal 24691.8945149993
variable tmp equal pzz
variable pzz1 equal -6920.59382735403
variable tmp equal pxy
variable pxy1 equal -1141.94498237064
variable tmp equal pxz
variable pxz1 equal 3820.37344859023
variable tmp equal pyz
variable pyz1 equal 10175.8057229672

# Compute elastic constant from pressure tensor

variable C1neg equal 1255107.725636
variable C2neg equal 2330803.83369188
variable C3neg equal -277101.107791385
variable C4neg equal -171975.32430221
variable C5neg equal -131125.437446195
variable C6neg equal 231763.815683324

# Reset box and simulation parameters

clear
box tilt large

The 'box' command has been removed and will be ignored

read_restart restart.equil
Reading restart file ...
  restart file = 7 Feb 2024, LAMMPS = 7 Feb 2024
  restoring atom style atomic from restart
  triclinic box = (0.30122871 0.26184981 -36.379284) to (5.6627713 4.9031257 105.72928) with tilt (-2.6796419 0 0)
  pair style tersoff stores no restart info
  240 atoms
  read_restart CPU = 0.000 seconds
include potential.mod
# NOTE: This script can be modified for different pair styles
# See in.elastic for more info.

# Choose potential
pair_style tersoff
pair_coeff * * WB.tersoff W B

# Setup neighbor style
neighbor 1.0 nsq
neigh_modify once no every 1 delay 0 check yes

# Setup minimization style
min_style	cg
min_modify dmax 0.01 line quadratic

# Setup output
thermo 1
thermo_style custom step temp pe press pxx pyy pzz pxy pxz pyz lx ly lz vol
thermo_modify norm no

dump 2 all atom 10 dump.WB2-l.lammpstrj

# Positive deformation

variable delta equal 1e-06*142.108568010266
variable deltaxy equal 1e-06*xy
variable deltaxz equal 1e-06*xz
variable deltayz equal 1e-06*yz
change_box all xz delta 0.000142108568010266 remap units box
Changing box ...
  triclinic box = (0.30122871 0.26184981 -36.379284) to (5.6627713 4.9031257 105.72928) with tilt (-2.6796419 0.00014210857 0)

# Relax atoms positions

minimize 0 1e-10 100 1000
Step          Temp          PotEng         Press           Pxx            Pyy            Pzz            Pxy            Pxz            Pyz             Lx             Ly             Lz           Volume
1330   0             -1062.1797     -488.28805      1323.8412      1384.5172     -4173.2226     -3463.4175      5114.3281      11898.336      5.3615426      4.6412759      142.10857      3536.2862
Loop time of 0.365409 on 1 procs for 100 steps with 240 atoms

Minimization stats:
  Stopping criterion = max iterations
  Energy initial, next-to-last, final =
  Force two-norm initial, final = 62.272664 8.7703424
  Force max component initial, final = 7.2701846 1.8840093
  Final line search alpha, max atom move = 0.0009482372 0.0017864877
  Iterations, force evaluations = 100 104

# Obtain new stress tensor

variable tmp equal pe
variable e1 equal -1247.93269689151
variable tmp equal press
variable p1 equal 10552.1769357308
variable tmp equal pxx
variable pxx1 equal 13875.4748427119
variable tmp equal pyy
variable pyy1 equal 24690.839283308
variable tmp equal pzz
variable pzz1 equal -6909.78331882736
variable tmp equal pxy
variable pxy1 equal -1143.66698513842
variable tmp equal pxz
variable pxz1 equal 3826.03434684405
variable tmp equal pyz
variable pyz1 equal 10168.7754075345

# Compute elastic constant from pressure tensor

variable C1pos equal -1254735.79988969
variable C2pos equal -2330698.31052275
variable C3pos equal 276020.056938718
variable C4pos equal 172678.35584548
variable C5pos equal 130559.347620813
variable C6pos equal -231591.615406546

# Combine positive and negative

variable C15 equal 0.5*(1255107.725636+-1254735.79988969)
variable C25 equal 0.5*(2330803.83369188+-2330698.31052275)
variable C35 equal 0.5*(-277101.107791385+276020.056938718)
variable C45 equal 0.5*(-171975.32430221+172678.35584548)
variable C55 equal 0.5*(-131125.437446195+130559.347620813)
variable C65 equal 0.5*(231763.815683324+-231591.615406546)

# Delete dir to make sure it is not reused

variable dir delete

# uxy Perturbation
variable dir equal 6
include displace.mod
# NOTE: This script should not need to be
# modified. See in.elastic for more info.
#
# Find which reference length to use

variable len0 equal 4.64127589316208

# Reset box and simulation parameters

clear
box tilt large

The 'box' command has been removed and will be ignored

read_restart restart.equil
Reading restart file ...
  restart file = 7 Feb 2024, LAMMPS = 7 Feb 2024
  restoring atom style atomic from restart
  triclinic box = (0.30122871 0.26184981 -36.379284) to (5.6627713 4.9031257 105.72928) with tilt (-2.6796419 0 0)
  pair style tersoff stores no restart info
  240 atoms
  read_restart CPU = 0.000 seconds
include potential.mod
# NOTE: This script can be modified for different pair styles
# See in.elastic for more info.

# Choose potential
pair_style tersoff
pair_coeff * * WB.tersoff W B

# Setup neighbor style
neighbor 1.0 nsq
neigh_modify once no every 1 delay 0 check yes

# Setup minimization style
min_style	cg
min_modify dmax 0.01 line quadratic

# Setup output
thermo 1
thermo_style custom step temp pe press pxx pyy pzz pxy pxz pyz lx ly lz vol
thermo_modify norm no

dump 2 all atom 10 dump.WB2-l.lammpstrj

# Negative deformation

variable delta equal -1e-06*4.64127589316208
variable deltaxy equal -1e-06*xy
variable deltaxz equal -1e-06*xz
variable deltayz equal -1e-06*yz
change_box all xy delta -4.64127589316208e-06 remap units box
Changing box ...
  triclinic box = (0.30122871 0.26184981 -36.379284) to (5.6627713 4.9031257 105.72928) with tilt (-2.6796465 0 0)

# Relax atoms positions

minimize 0 1e-10 100 1000
Step          Temp          PotEng         Press           Pxx            Pyy            Pzz            Pxy            Pxz            Pyz             Lx             Ly             Lz           Volume
1330   0             -1062.1797     -487.53464      1324.164       1384.6246     -4171.3925     -3460.1221      5129.163       11897.855      5.3615426      4.6412759      142.10857      3536.2862
Loop time of 0.367889 on 1 procs for 100 steps with 240 atoms

Minimization stats:
  Stopping criterion = max iterations
  Energy initial, next-to-last, final =
  Force two-norm initial, final = 62.272691 8.7707362
  Force max component initial, final = 7.2701839 1.8837402
  Final line search alpha, max atom move = 0.00095123763 0.0017918846
  Iterations, force evaluations = 100 104

# Obtain new stress tensor

variable tmp equal pxx
variable pxx1 equal 13876.9805127841
variable tmp equal pyy
variable pyy1 equal 24691.9048631524
variable tmp equal pzz
variable pzz1 equal -6911.98206293674
variable tmp equal pxy
variable pxy1 equal -1142.80462337839
variable tmp equal pxz
variable pxz1 equal 3824.02057279018
variable tmp equal pyz
variable pyz1 equal 10170.5631839866

# Compute elastic constant from pressure tensor

variable C1neg equal 1254886.36689691
variable C2neg equal 2330804.86850719
variable C3neg equal -276239.931349656
variable C4neg equal -172499.57820027
variable C5neg equal -130760.7250262
variable C6neg equal 231677.851582549

# Reset box and simulation parameters

clear
box tilt large

The 'box' command has been removed and will be ignored

read_restart restart.equil
Reading restart file ...
  restart file = 7 Feb 2024, LAMMPS = 7 Feb 2024
  restoring atom style atomic from restart
  triclinic box = (0.30122871 0.26184981 -36.379284) to (5.6627713 4.9031257 105.72928) with tilt (-2.6796419 0 0)
  pair style tersoff stores no restart info
  240 atoms
  read_restart CPU = 0.000 seconds
include potential.mod
# NOTE: This script can be modified for different pair styles
# See in.elastic for more info.

# Choose potential
pair_style tersoff
pair_coeff * * WB.tersoff W B

# Setup neighbor style
neighbor 1.0 nsq
neigh_modify once no every 1 delay 0 check yes

# Setup minimization style
min_style	cg
min_modify dmax 0.01 line quadratic

# Setup output
thermo 1
thermo_style custom step temp pe press pxx pyy pzz pxy pxz pyz lx ly lz vol
thermo_modify norm no

dump 2 all atom 10 dump.WB2-l.lammpstrj

# Positive deformation

variable delta equal 1e-06*4.64127589316208
variable deltaxy equal 1e-06*xy
variable deltaxz equal 1e-06*xz
variable deltayz equal 1e-06*yz
change_box all xy delta 4.64127589316208e-06 remap units box
Changing box ...
  triclinic box = (0.30122871 0.26184981 -36.379284) to (5.6627713 4.9031257 105.72928) with tilt (-2.6796372 0 0)

# Relax atoms positions

minimize 0 1e-10 100 1000
Step          Temp          PotEng         Press           Pxx            Pyy            Pzz            Pxy            Pxz            Pyz             Lx             Ly             Lz           Volume
1330   0             -1062.1797     -487.01715      1324.3838      1384.7028     -4170.138      -3465.2375      5127.6875      11897.562      5.3615426      4.6412759      142.10857      3536.2862
Loop time of 0.37375 on 1 procs for 100 steps with 240 atoms

Minimization stats:
  Stopping criterion = max iterations
  Energy initial, next-to-last, final =
  Force two-norm initial, final = 62.272725 8.7712496
  Force max component initial, final = 7.2701846 1.8830252
  Final line search alpha, max atom move = 0.00096017713 0.0018080378
  Iterations, force evaluations = 100 104

# Obtain new stress tensor

variable tmp equal pe
variable e1 equal -1247.93198195514
variable tmp equal press
variable p1 equal 10550.0422486207
variable tmp equal pxx
variable pxx1 equal 13877.6919572669
variable tmp equal pyy
variable pyy1 equal 24690.8345282212
variable tmp equal pzz
variable pzz1 equal -6918.39973962611
variable tmp equal pxy
variable pxy1 equal -1142.805309065
variable tmp equal pxz
variable pxz1 equal 3822.38441311944
variable tmp equal pyz
variable pyz1 equal 10174.017822724

# Compute elastic constant from pressure tensor

variable C1pos equal -1254957.51134519
variable C2pos equal -2330697.83501407
variable C3pos equal 276881.699018593
variable C4pos equal 172154.11432653
variable C5pos equal 130924.340993274
variable C6pos equal -231677.783013888

# Combine positive and negative

variable C16 equal 0.5*(1254886.36689691+-1254957.51134519)
variable C26 equal 0.5*(2330804.86850719+-2330697.83501407)
variable C36 equal 0.5*(-276239.931349656+276881.699018593)
variable C46 equal 0.5*(-172499.57820027+172154.11432653)
variable C56 equal 0.5*(-130760.7250262+130924.340993274)
variable C66 equal 0.5*(231677.851582549+-231677.783013888)

# Delete dir to make sure it is not reused

variable dir delete

# Output final values

variable C11all equal 191.696236019954
variable C22all equal 303.63448306499
variable C33all equal 1985.20977641499

variable C12all equal 0.5*(173.457429619972+310.010139445076)
variable C13all equal 0.5*(-126.117699639988+570.225094442489)
variable C23all equal 0.5*(412.660432295175+359.822723410005)

variable C44all equal -587.271996369993
variable C55all equal -283.044912690995
variable C66all equal 0.0342843304970302

variable C14all equal 0.5*(-103.731028114911+-252.43867643)
variable C15all equal 0.5*(185.962873155018+-12.9284711770015)
variable C16all equal 0.5*(-35.5722241400508+1.73084905400174)

variable C24all equal 0.5*(129.915226100013+-204.806838180011)
variable C25all equal 0.5*(52.7615845650434+45.3803604944987)
variable C26all equal 0.5*(53.5167465601116+-10.9946046474943)

variable C34all equal 0.5*(892.072604478482+-989.509722604998)
variable C35all equal 0.5*(-540.525426333479+43.7457601600036)
variable C36all equal 0.5*(320.883834468492+-18.2182456695009)

variable C45all equal 0.5*(351.515771634993+244.438000239505)
variable C46all equal 0.5*(-172.731936870012+-78.8157119465031)
variable C56all equal 0.5*(81.8079835370008+86.1001383889961)

C11: 191.696236019954
C12: 173.457429619972
C44: -587.271996369993
