LAMMPS (7 Feb 2024 - Development - patch_7Feb2024_update1-197-g554f53decb)
package omp 0
using multi-threaded neighbor list subroutines
clear
package omp 0
using multi-threaded neighbor list subroutines
units metal
dimension 3
boundary p p p

# Atom definition
atom_style atomic
atom_modify map array

read_data W2B5_R3.lmpstr
Reading data file ...
  triclinic box = (0 0 0) to (2.9225 4.6563 5.9018) with tilt (0 0 0)
  reading atoms ...
  4 atoms
replicate 4 4 4
Replication is creating a 4x4x4 = 64 times larger system...
  triclinic box = (0 0 0) to (11.69 18.6252 23.6072) with tilt (0 0 0)
  256 atoms
  replicate CPU = 0.001 seconds

# Define mass and interactions (from lit.)
pair_style tersoff
pair_coeff * * WB.tersoff W B

# Neighbors and thermo settings
neighbor 2.0 bin
neigh_modify delay 1 check yes

reset_timestep 0
# The vmax keyword can be used to limit the fractional change in the
# volume of the simulation box that can occur in one iteration of the
# minimizer. If the pressure is not settling down during the
# minimization this can be because the volume is fluctuating too much.
# The specified fraction must be greater than 0.0 and should be << 1.0.
fix box_relax all box/relax aniso 0.0 vmax 0.001

# Set the thermo style to collect data every 10 time steps
thermo 10
thermo_style custom step temp press etotal vol cella cellc

# Minimisation algorithms:
#   cg = Conjugate Gradient
#   sd = Steepest Descent
# Typically, steepest descent will not converge as quickly as CG, but may
# be more robust in some situations.

# Run energy minimisation algorithms. Use multiple to guarantee a stable
# phase. Minimize args:
#   etol(stop tolerance: energy)
#   ftol(stop tolerance: force)
#   maxiter(max iters of minimiser)
#   maxeval(max # of F/E calcs)

min_style cg
minimize 1.0e-10 1.0e-12 10000 1000000
Last active /omp style is pair_style tersoff/omp
 (src/min.cpp:219)
Step          Temp          Press          TotEng         Volume         Cella          Cellc
0   0              63854484       275363.66      5139.9623      11.69          23.6072
Averages over the last 243 of 485 rows, steps 2420 to 4833:
Temp Press TotEng Volume Cella Cellc
0 56482.9 99.2474 52418.7 11.6019 55.514
Loop time of 0.954232 on 6 procs for 4833 steps with 256 atoms

Minimization stats:
  Stopping criterion = energy tolerance
  Energy initial, next-to-last, final =
  Force two-norm initial, final = 462869.18 1.2940241
  Force max component initial, final = 415129.15 0.27011874
  Final line search alpha, max atom move = 2.2468306e-05 6.0691105e-06
  Iterations, force evaluations = 4833 5546

min_style sd
minimize 1.0e-10 1.0e-12 10000 1000000
Last active /omp style is pair_style tersoff/omp
 (src/min.cpp:219)
Step          Temp          Press          TotEng         Volume         Cella          Cellc
4833   0              20.399307     -609.75016      49160.757      10.09843       52.787102
Averages over the last 501 of 1002 rows, steps 9840 to 14833:
Temp Press TotEng Volume Cella Cellc
0 -0.0983526 -609.8 49207.2 10.0989 52.7555
Loop time of 9.4273 on 6 procs for 10000 steps with 256 atoms

Minimization stats:
  Stopping criterion = max iterations
  Energy initial, next-to-last, final =
  Force two-norm initial, final = 1.8757946 6.2445328
  Force max component initial, final = 1.2721081 4.8943925
  Final line search alpha, max atom move = 0.076999098 0.3768638
  Iterations, force evaluations = 10000 60000

min_style cg
minimize 1.0e-10 1.0e-12 10000 1000000
Last active /omp style is pair_style tersoff/omp
 (src/min.cpp:219)
Step          Temp          Press          TotEng         Volume         Cella          Cellc
14833   0              94.7373       -609.81619      49230.942      10.098901      52.757134
Loop time of 0.0342088 on 6 procs for 27 steps with 256 atoms

Minimization stats:
  Stopping criterion = energy tolerance
  Energy initial, next-to-last, final =
  Force two-norm initial, final = 6.2506832 7.6939639
  Force max component initial, final = 4.9039355 5.8178659
  Final line search alpha, max atom move = 8.804761e-08 5.1224918e-07
  Iterations, force evaluations = 27 244

min_style cg
minimize 1.0e-10 1.0e-12 10000 1000000
Last active /omp style is pair_style tersoff/omp
 (src/min.cpp:219)
Step          Temp          Press          TotEng         Volume         Cella          Cellc
14860   0              112.41059     -609.81653      49231.572      10.098901      52.757182
Averages over the last 81 of 162 rows, steps 15670 to 16469:
Temp Press TotEng Volume Cella Cellc
0 48.9894 -613.261 47281.9 10.0954 46.2068
Loop time of 1.1249 on 6 procs for 1609 steps with 256 atoms

Minimization stats:
  Stopping criterion = energy tolerance
  Energy initial, next-to-last, final =
  Force two-norm initial, final = 7.6940188 7.020958
  Force max component initial, final = 5.8179351 4.5317378
  Final line search alpha, max atom move = 3.4369188e-06 1.5575215e-05
  Iterations, force evaluations = 1609 7408

unfix box_relax

# Divide sim box by periodic multiple
variable        a equal cella/4
variable        b equal cellb/4
variable        c equal cellc/4
variable        E equal etotal

LA: 2.52404617886509
LB: 25.346500914156
LC: 11.5554826260065
COHENERGY: -613.605105695146

# ELASTIC CONSTANT

variable up equal 1.0e-6
variable atomjiggle equal 1.0e-5
variable cfac equal 1.0e-4
variable cunits string GPa
variable etol equal 0.0
variable ftol equal 1.0e-10
variable maxiter equal 100
variable maxeval equal 1000
variable dmax equal 1.0e-2

include potential.mod
# NOTE: This script can be modified for different pair styles
# See in.elastic for more info.

# Choose potential
pair_style tersoff
pair_coeff * * WB.tersoff W B

# Setup neighbor style
neighbor 1.0 nsq
neigh_modify once no every 1 delay 0 check yes

# Setup minimization style
min_style	     cg
min_modify	     dmax 0.01 line quadratic

# Setup output
thermo		1
thermo_style custom step temp pe press pxx pyy pzz pxy pxz pyz lx ly lz vol
thermo_modify norm no

# Compute initial state
fix 3 all box/relax  aniso 1.0
minimize 0 1e-10 100 1000
Last active /omp style is pair_style tersoff/omp
 (src/min.cpp:219)
Step          Temp          PotEng         Press           Pxx            Pyy            Pzz            Pxy            Pxz            Pyz             Lx             Ly             Lz           Volume
16469   0             -613.60511      89.697499      0.10629979     168.37661      100.60959     -0.0071955928   0.00072338156 -52.06603       10.096185      101.386        46.221931      47313.314
Loop time of 0.0455796 on 6 procs for 100 steps with 256 atoms

Minimization stats:
  Stopping criterion = max iterations
  Energy initial, next-to-last, final =
  Force two-norm initial, final = 7.0951649 2.9043003
  Force max component initial, final = 4.9427402 1.8610623
  Final line search alpha, max atom move = 6.9517853e-05 0.00012937706
  Iterations, force evaluations = 100 285

variable tmp equal pxx
variable pxx0 equal 0.975104844141815
variable tmp equal pyy
variable pyy0 equal 63.9054267124325
variable tmp equal pzz
variable pzz0 equal 43.6640420235888
variable tmp equal pyz
variable pyz0 equal -133.246127949363
variable tmp equal pxz
variable pxz0 equal -0.000435729114035498
variable tmp equal pxy
variable pxy0 equal -0.0083584949138514

variable tmp equal lx
variable lx0 equal 10.0961774199278
variable tmp equal ly
variable ly0 equal 101.320962220795
variable tmp equal lz
variable lz0 equal 46.3071645153027

# These formulas define the derivatives w.r.t. strain components
# Constants uses $, variables use v_
variable d1 equal -(v_pxx1-0.975104844141815)/(v_delta/v_len0)*0.0001
variable d2 equal -(v_pyy1-63.9054267124325)/(v_delta/v_len0)*0.0001
variable d3 equal -(v_pzz1-43.6640420235888)/(v_delta/v_len0)*0.0001
variable d4 equal -(v_pyz1--133.246127949363)/(v_delta/v_len0)*0.0001
variable d5 equal -(v_pxz1--0.000435729114035498)/(v_delta/v_len0)*0.0001
variable d6 equal -(v_pxy1--0.0083584949138514)/(v_delta/v_len0)*0.0001

displace_atoms all random 1e-05 1e-05 1e-05 87287 units box
Displacing atoms ...

# Write restart
unfix 3
write_restart restart.equil
System init for write_restart ...
Last active /omp style is pair_style tersoff/omp

variable dir equal 1
include displace.mod
# NOTE: This script should not need to be
# modified. See in.elastic for more info.
#
# Find which reference length to use

variable len0 equal 10.0961774199278

# Reset box and simulation parameters

clear
package omp 0
using multi-threaded neighbor list subroutines
box tilt large

The 'box' command has been removed and will be ignored

read_restart restart.equil
Reading restart file ...
  restart file = 7 Feb 2024, LAMMPS = 7 Feb 2024
  restoring atom style atomic from restart
  triclinic box = (0.79691129 -41.347881 -11.349982) to (10.893089 59.973081 34.957182) with tilt (0 0 0)
  pair style tersoff stores no restart info
  256 atoms
  read_restart CPU = 0.000 seconds
include potential.mod
# NOTE: This script can be modified for different pair styles
# See in.elastic for more info.

# Choose potential
pair_style tersoff
pair_coeff * * WB.tersoff W B

# Setup neighbor style
neighbor 1.0 nsq
neigh_modify once no every 1 delay 0 check yes

# Setup minimization style
min_style	     cg
min_modify	     dmax 0.01 line quadratic

# Setup output
thermo		1
thermo_style custom step temp pe press pxx pyy pzz pxy pxz pyz lx ly lz vol
thermo_modify norm no

# Negative deformation

variable delta equal -1e-06*10.0961774199278
variable deltaxy equal -1e-06*xy
variable deltaxz equal -1e-06*xz
variable deltayz equal -1e-06*yz
change_box all x delta 0 -1.00961774199278e-05 xy delta -0 xz delta -0 remap units box
Changing box ...
  triclinic box = (0.79691129 -41.347881 -11.349982) to (10.893079 59.973081 34.957182) with tilt (0 0 0)
  triclinic box = (0.79691129 -41.347881 -11.349982) to (10.893079 59.973081 34.957182) with tilt (0 0 0)
  triclinic box = (0.79691129 -41.347881 -11.349982) to (10.893079 59.973081 34.957182) with tilt (0 0 0)

# Relax atoms positions

minimize 0 1e-10 100 1000
Last active /omp style is pair_style tersoff/omp
Step          Temp          PotEng         Press           Pxx            Pyy            Pzz            Pxy            Pxz            Pyz             Lx             Ly             Lz           Volume
16569   0             -613.64371      12.152591      1.1929703      17.950033      17.31477      -0.012385449    0.00090238744 -168.05183      10.096167      101.32096      46.307165      47370.071
Loop time of 0.0586264 on 6 procs for 100 steps with 256 atoms

Minimization stats:
  Stopping criterion = max iterations
  Energy initial, next-to-last, final =
  Force two-norm initial, final = 2.1254039 3.437199
  Force max component initial, final = 0.26515744 0.73133678
  Final line search alpha, max atom move = 0.0097059244 0.0070982995
  Iterations, force evaluations = 100 386

# Obtain new stress tensor

variable tmp equal pxx
variable pxx1 equal 20.6670676004837
variable tmp equal pyy
variable pyy1 equal -428.479421625231
variable tmp equal pzz
variable pzz1 equal 206.02048131923
variable tmp equal pxy
variable pxy1 equal -0.00963431788955106
variable tmp equal pxz
variable pxz1 equal -0.00295319564284987
variable tmp equal pyz
variable pyz1 equal -53.5360568739111

# Compute elastic constant from pressure tensor

variable C1neg equal 1969.19627563419
variable C2neg equal -49238.4848337663
variable C3neg equal 16235.6439295641
variable C4neg equal 7971.00710754519
variable C5neg equal -0.251746652881437
variable C6neg equal -0.127582297569966

# Reset box and simulation parameters

clear
package omp 0
using multi-threaded neighbor list subroutines
box tilt large

The 'box' command has been removed and will be ignored

read_restart restart.equil
Reading restart file ...
  restart file = 7 Feb 2024, LAMMPS = 7 Feb 2024
  restoring atom style atomic from restart
  triclinic box = (0.79691129 -41.347881 -11.349982) to (10.893089 59.973081 34.957182) with tilt (0 0 0)
  pair style tersoff stores no restart info
  256 atoms
  read_restart CPU = 0.000 seconds
include potential.mod
# NOTE: This script can be modified for different pair styles
# See in.elastic for more info.

# Choose potential
pair_style tersoff
pair_coeff * * WB.tersoff W B

# Setup neighbor style
neighbor 1.0 nsq
neigh_modify once no every 1 delay 0 check yes

# Setup minimization style
min_style	     cg
min_modify	     dmax 0.01 line quadratic

# Setup output
thermo		1
thermo_style custom step temp pe press pxx pyy pzz pxy pxz pyz lx ly lz vol
thermo_modify norm no

# Positive deformation

variable delta equal 1e-06*10.0961774199278
variable deltaxy equal 1e-06*xy
variable deltaxz equal 1e-06*xz
variable deltayz equal 1e-06*yz
change_box all x delta 0 1.00961774199278e-05 xy delta 0 xz delta 0 remap units box
Changing box ...
  triclinic box = (0.79691129 -41.347881 -11.349982) to (10.893099 59.973081 34.957182) with tilt (0 0 0)
  triclinic box = (0.79691129 -41.347881 -11.349982) to (10.893099 59.973081 34.957182) with tilt (0 0 0)
  triclinic box = (0.79691129 -41.347881 -11.349982) to (10.893099 59.973081 34.957182) with tilt (0 0 0)

# Relax atoms positions

minimize 0 1e-10 100 1000
Last active /omp style is pair_style tersoff/omp
Step          Temp          PotEng         Press           Pxx            Pyy            Pzz            Pxy            Pxz            Pyz             Lx             Ly             Lz           Volume
16569   0             -613.64371      11.983264      0.75165473     17.90479       17.293347     -0.012385979    0.00090250462 -168.04982      10.096188      101.32096      46.307165      47370.166
Loop time of 0.0516973 on 6 procs for 100 steps with 256 atoms

Minimization stats:
  Stopping criterion = max iterations
  Energy initial, next-to-last, final =
  Force two-norm initial, final = 2.1254125 1.9177419
  Force max component initial, final = 0.26515138 0.4663604
  Final line search alpha, max atom move = 0.00024707555 0.00011522625
  Iterations, force evaluations = 100 323

# Obtain new stress tensor

variable tmp equal pe
variable e1 equal -614.104636512125
variable tmp equal press
variable p1 equal -187.51428177521
variable tmp equal pxx
variable pxx1 equal 38.9109322088226
variable tmp equal pyy
variable pyy1 equal -668.647234443003
variable tmp equal pzz
variable pzz1 equal 67.1934569085518
variable tmp equal pxy
variable pxy1 equal -0.010014377487083
variable tmp equal pxz
variable pxz1 equal -0.00281309146642231
variable tmp equal pyz
variable pyz1 equal -333.774033339321

# Compute elastic constant from pressure tensor

variable C1pos equal -3793.58273646808
variable C2pos equal 73255.2661155435
variable C3pos equal -2352.9414884963
variable C4pos equal 20052.7905389958
variable C5pos equal 0.237736235238681
variable C6pos equal 0.16558825732316

# Combine positive and negative

variable C11 equal 0.5*(1969.19627563419+-3793.58273646808)
variable C21 equal 0.5*(-49238.4848337663+73255.2661155435)
variable C31 equal 0.5*(16235.6439295641+-2352.9414884963)
variable C41 equal 0.5*(7971.00710754519+20052.7905389958)
variable C51 equal 0.5*(-0.251746652881437+0.237736235238681)
variable C61 equal 0.5*(-0.127582297569966+0.16558825732316)

# Delete dir to make sure it is not reused

variable dir delete

# uyy Perturbation

variable dir equal 2
include displace.mod
# NOTE: This script should not need to be
# modified. See in.elastic for more info.
#
# Find which reference length to use

variable len0 equal 101.320962220795

# Reset box and simulation parameters

clear
package omp 0
using multi-threaded neighbor list subroutines
box tilt large

The 'box' command has been removed and will be ignored

read_restart restart.equil
Reading restart file ...
  restart file = 7 Feb 2024, LAMMPS = 7 Feb 2024
  restoring atom style atomic from restart
  triclinic box = (0.79691129 -41.347881 -11.349982) to (10.893089 59.973081 34.957182) with tilt (0 0 0)
  pair style tersoff stores no restart info
  256 atoms
  read_restart CPU = 0.000 seconds
include potential.mod
# NOTE: This script can be modified for different pair styles
# See in.elastic for more info.

# Choose potential
pair_style tersoff
pair_coeff * * WB.tersoff W B

# Setup neighbor style
neighbor 1.0 nsq
neigh_modify once no every 1 delay 0 check yes

# Setup minimization style
min_style	     cg
min_modify	     dmax 0.01 line quadratic

# Setup output
thermo		1
thermo_style custom step temp pe press pxx pyy pzz pxy pxz pyz lx ly lz vol
thermo_modify norm no

# Negative deformation

variable delta equal -1e-06*101.320962220795
variable deltaxy equal -1e-06*xy
variable deltaxz equal -1e-06*xz
variable deltayz equal -1e-06*yz
change_box all y delta 0 -0.000101320962220795 yz delta -0 remap units box
Changing box ...
  triclinic box = (0.79691129 -41.347881 -11.349982) to (10.893089 59.97298 34.957182) with tilt (0 0 0)
  triclinic box = (0.79691129 -41.347881 -11.349982) to (10.893089 59.97298 34.957182) with tilt (0 0 0)

# Relax atoms positions

minimize 0 1e-10 100 1000
Last active /omp style is pair_style tersoff/omp
Step          Temp          PotEng         Press           Pxx            Pyy            Pzz            Pxy            Pxz            Pyz             Lx             Ly             Lz           Volume
16569   0             -613.64371      51.142905      0.99502078     92.461044      59.972651     -0.011966939    0.0012187257  -111.76883      10.096177      101.32086      46.307165      47370.071
Loop time of 0.0452145 on 6 procs for 100 steps with 256 atoms

Minimization stats:
  Stopping criterion = max iterations
  Energy initial, next-to-last, final =
  Force two-norm initial, final = 2.1023814 5.2710611
  Force max component initial, final = 0.25049123 1.4939007
  Final line search alpha, max atom move = 0.011357065 0.016966327
  Iterations, force evaluations = 100 299

# Obtain new stress tensor

variable tmp equal pxx
variable pxx1 equal 61.9536541600834
variable tmp equal pyy
variable pyy1 equal -313.875382972263
variable tmp equal pzz
variable pzz1 equal 359.197806521949
variable tmp equal pxy
variable pxy1 equal -0.00456878243104548
variable tmp equal pxz
variable pxz1 equal 0.00128028548207307
variable tmp equal pyz
variable pyz1 equal -87.9502796216217

# Compute elastic constant from pressure tensor

variable C1neg equal 6097.85493159416
variable C2neg equal -37778.0809684696
variable C3neg equal 31553.376449836
variable C4neg equal 4529.58483277413
variable C5neg equal 0.171601459610857
variable C6neg equal 0.378971248280592

# Reset box and simulation parameters

clear
package omp 0
using multi-threaded neighbor list subroutines
box tilt large

The 'box' command has been removed and will be ignored

read_restart restart.equil
Reading restart file ...
  restart file = 7 Feb 2024, LAMMPS = 7 Feb 2024
  restoring atom style atomic from restart
  triclinic box = (0.79691129 -41.347881 -11.349982) to (10.893089 59.973081 34.957182) with tilt (0 0 0)
  pair style tersoff stores no restart info
  256 atoms
  read_restart CPU = 0.000 seconds
include potential.mod
# NOTE: This script can be modified for different pair styles
# See in.elastic for more info.

# Choose potential
pair_style tersoff
pair_coeff * * WB.tersoff W B

# Setup neighbor style
neighbor 1.0 nsq
neigh_modify once no every 1 delay 0 check yes

# Setup minimization style
min_style	     cg
min_modify	     dmax 0.01 line quadratic

# Setup output
thermo		1
thermo_style custom step temp pe press pxx pyy pzz pxy pxz pyz lx ly lz vol
thermo_modify norm no

# Positive deformation

variable delta equal 1e-06*101.320962220795
variable deltaxy equal 1e-06*xy
variable deltaxz equal 1e-06*xz
variable deltayz equal 1e-06*yz
change_box all y delta 0 0.000101320962220795 yz delta 0 remap units box
Changing box ...
  triclinic box = (0.79691129 -41.347881 -11.349982) to (10.893089 59.973182 34.957182) with tilt (0 0 0)
  triclinic box = (0.79691129 -41.347881 -11.349982) to (10.893089 59.973182 34.957182) with tilt (0 0 0)

# Relax atoms positions

minimize 0 1e-10 100 1000
Last active /omp style is pair_style tersoff/omp
Step          Temp          PotEng         Press           Pxx            Pyy            Pzz            Pxy            Pxz            Pyz             Lx             Ly             Lz           Volume
16569   0             -613.64371     -27.007073      0.94981161    -56.606506     -25.364526     -0.012804488    0.00058616655 -224.33292      10.096177      101.32106      46.307165      47370.166
Loop time of 0.0598564 on 6 procs for 100 steps with 256 atoms

Minimization stats:
  Stopping criterion = max iterations
  Energy initial, next-to-last, final =
  Force two-norm initial, final = 2.1683036 25.188938
  Force max component initial, final = 0.27981764 7.9669929
  Final line search alpha, max atom move = 0.00055007625 0.0043824535
  Iterations, force evaluations = 100 435

# Obtain new stress tensor

variable tmp equal pe
variable e1 equal -614.232546166918
variable tmp equal press
variable p1 equal 691.418888288057
variable tmp equal pxx
variable pxx1 equal 37.0259194560232
variable tmp equal pyy
variable pyy1 equal 921.470216846119
variable tmp equal pzz
variable pzz1 equal 1115.76052856203
variable tmp equal pxy
variable pxy1 equal -0.00103114330708998
variable tmp equal pxz
variable pxz1 equal 0.00356128933905742
variable tmp equal pyz
variable pyz1 equal 1011.69544656133

# Compute elastic constant from pressure tensor

variable C1pos equal -3605.08146118814
variable C2pos equal -85756.4790133687
variable C3pos equal -107209.648653844
variable C4pos equal -114494.157451069
variable C5pos equal -0.399701845309292
variable C6pos equal -0.732735160676142

# Combine positive and negative

variable C12 equal 0.5*(6097.85493159416+-3605.08146118814)
variable C22 equal 0.5*(-37778.0809684696+-85756.4790133687)
variable C32 equal 0.5*(31553.376449836+-107209.648653844)
variable C42 equal 0.5*(4529.58483277413+-114494.157451069)
variable C52 equal 0.5*(0.171601459610857+-0.399701845309292)
variable C62 equal 0.5*(0.378971248280592+-0.732735160676142)

# Delete dir to make sure it is not reused

variable dir delete

# uzz Perturbation

variable dir equal 3
include displace.mod
# NOTE: This script should not need to be
# modified. See in.elastic for more info.
#
# Find which reference length to use

variable len0 equal 46.3071645153027

# Reset box and simulation parameters

clear
package omp 0
using multi-threaded neighbor list subroutines
box tilt large

The 'box' command has been removed and will be ignored

read_restart restart.equil
Reading restart file ...
  restart file = 7 Feb 2024, LAMMPS = 7 Feb 2024
  restoring atom style atomic from restart
  triclinic box = (0.79691129 -41.347881 -11.349982) to (10.893089 59.973081 34.957182) with tilt (0 0 0)
  pair style tersoff stores no restart info
  256 atoms
  read_restart CPU = 0.000 seconds
include potential.mod
# NOTE: This script can be modified for different pair styles
# See in.elastic for more info.

# Choose potential
pair_style tersoff
pair_coeff * * WB.tersoff W B

# Setup neighbor style
neighbor 1.0 nsq
neigh_modify once no every 1 delay 0 check yes

# Setup minimization style
min_style	     cg
min_modify	     dmax 0.01 line quadratic

# Setup output
thermo		1
thermo_style custom step temp pe press pxx pyy pzz pxy pxz pyz lx ly lz vol
thermo_modify norm no

# Negative deformation

variable delta equal -1e-06*46.3071645153027
variable deltaxy equal -1e-06*xy
variable deltaxz equal -1e-06*xz
variable deltayz equal -1e-06*yz
change_box all z delta 0 -4.63071645153027e-05 remap units box
Changing box ...
  triclinic box = (0.79691129 -41.347881 -11.349982) to (10.893089 59.973081 34.957136) with tilt (0 0 0)

# Relax atoms positions

minimize 0 1e-10 100 1000
Last active /omp style is pair_style tersoff/omp
Step          Temp          PotEng         Press           Pxx            Pyy            Pzz            Pxy            Pxz            Pyz             Lx             Ly             Lz           Volume
16569   0             -613.64371      34.449229      0.98304133     60.596012      41.768634     -0.01214619     0.0010837765  -135.77431      10.096177      101.32096      46.307118      47370.071
Loop time of 0.07334 on 6 procs for 100 steps with 256 atoms

Minimization stats:
  Stopping criterion = max iterations
  Energy initial, next-to-last, final =
  Force two-norm initial, final = 2.1096724 5.7102192
  Force max component initial, final = 0.25674103 0.73110226
  Final line search alpha, max atom move = 0.00081532361 0.00059608493
  Iterations, force evaluations = 100 468

# Obtain new stress tensor

variable tmp equal pxx
variable pxx1 equal -25.6099324109889
variable tmp equal pyy
variable pyy1 equal -638.558200503098
variable tmp equal pzz
variable pzz1 equal 3.40296394503318
variable tmp equal pxy
variable pxy1 equal -0.00205228933638722
variable tmp equal pxz
variable pxz1 equal 0.001850738408031
variable tmp equal pyz
variable pyz1 equal -50.7896934823813

# Compute elastic constant from pressure tensor

variable C1neg equal -2658.50372551307
variable C2neg equal -70246.3627215531
variable C3neg equal -4026.10780785556
variable C4neg equal 8245.64344669817
variable C5neg equal 0.22864675220665
variable C6neg equal 0.630620557746418

# Reset box and simulation parameters

clear
package omp 0
using multi-threaded neighbor list subroutines
box tilt large

The 'box' command has been removed and will be ignored

read_restart restart.equil
Reading restart file ...
  restart file = 7 Feb 2024, LAMMPS = 7 Feb 2024
  restoring atom style atomic from restart
  triclinic box = (0.79691129 -41.347881 -11.349982) to (10.893089 59.973081 34.957182) with tilt (0 0 0)
  pair style tersoff stores no restart info
  256 atoms
  read_restart CPU = 0.000 seconds
include potential.mod
# NOTE: This script can be modified for different pair styles
# See in.elastic for more info.

# Choose potential
pair_style tersoff
pair_coeff * * WB.tersoff W B

# Setup neighbor style
neighbor 1.0 nsq
neigh_modify once no every 1 delay 0 check yes

# Setup minimization style
min_style	     cg
min_modify	     dmax 0.01 line quadratic

# Setup output
thermo		1
thermo_style custom step temp pe press pxx pyy pzz pxy pxz pyz lx ly lz vol
thermo_modify norm no

# Positive deformation

variable delta equal 1e-06*46.3071645153027
variable deltaxy equal 1e-06*xy
variable deltaxz equal 1e-06*xz
variable deltayz equal 1e-06*yz
change_box all z delta 0 4.63071645153027e-05 remap units box
Changing box ...
  triclinic box = (0.79691129 -41.347881 -11.349982) to (10.893089 59.973081 34.957229) with tilt (0 0 0)

# Relax atoms positions

minimize 0 1e-10 100 1000
Last active /omp style is pair_style tersoff/omp
Step          Temp          PotEng         Press           Pxx            Pyy            Pzz            Pxy            Pxz            Pyz             Lx             Ly             Lz           Volume
16569   0             -613.64371     -10.313373      0.96165101    -24.741166     -7.1606026     -0.012625237    0.00072111535 -200.32739      10.096177      101.32096      46.307211      47370.166
Loop time of 0.0947308 on 6 procs for 100 steps with 256 atoms

Minimization stats:
  Stopping criterion = max iterations
  Energy initial, next-to-last, final =
  Force two-norm initial, final = 2.1476913 3.547124
  Force max component initial, final = 0.2735678 1.2781613
  Final line search alpha, max atom move = 0.0067888981 0.0086773067
  Iterations, force evaluations = 100 388

# Obtain new stress tensor

variable tmp equal pe
variable e1 equal -614.128068843107
variable tmp equal press
variable p1 equal -138.201256804105
variable tmp equal pxx
variable pxx1 equal 64.6980605412089
variable tmp equal pyy
variable pyy1 equal -615.037269212531
variable tmp equal pzz
variable pzz1 equal 135.735438259008
variable tmp equal pxy
variable pxy1 equal -0.0101877794023237
variable tmp equal pxz
variable pxz1 equal -0.00315143608436354
variable tmp equal pyz
variable pyz1 equal -384.694003492486

# Compute elastic constant from pressure tensor

variable C1pos equal -6372.29556970671
variable C2pos equal 67894.2695924963
variable C3pos equal -9207.13962354192
variable C4pos equal 25144.7875543123
variable C5pos equal 0.271570697032804
variable C6pos equal 0.18292844884723

# Combine positive and negative

variable C13 equal 0.5*(-2658.50372551307+-6372.29556970671)
variable C23 equal 0.5*(-70246.3627215531+67894.2695924963)
variable C33 equal 0.5*(-4026.10780785556+-9207.13962354192)
variable C43 equal 0.5*(8245.64344669817+25144.7875543123)
variable C53 equal 0.5*(0.22864675220665+0.271570697032804)
variable C63 equal 0.5*(0.630620557746418+0.18292844884723)

# Delete dir to make sure it is not reused

variable dir delete

# uyz Perturbation

variable dir equal 4
include displace.mod
# NOTE: This script should not need to be
# modified. See in.elastic for more info.
#
# Find which reference length to use

variable len0 equal 46.3071645153027

# Reset box and simulation parameters

clear
package omp 0
using multi-threaded neighbor list subroutines
box tilt large

The 'box' command has been removed and will be ignored

read_restart restart.equil
Reading restart file ...
  restart file = 7 Feb 2024, LAMMPS = 7 Feb 2024
  restoring atom style atomic from restart
  triclinic box = (0.79691129 -41.347881 -11.349982) to (10.893089 59.973081 34.957182) with tilt (0 0 0)
  pair style tersoff stores no restart info
  256 atoms
  read_restart CPU = 0.000 seconds
include potential.mod
# NOTE: This script can be modified for different pair styles
# See in.elastic for more info.

# Choose potential
pair_style tersoff
pair_coeff * * WB.tersoff W B

# Setup neighbor style
neighbor 1.0 nsq
neigh_modify once no every 1 delay 0 check yes

# Setup minimization style
min_style	     cg
min_modify	     dmax 0.01 line quadratic

# Setup output
thermo		1
thermo_style custom step temp pe press pxx pyy pzz pxy pxz pyz lx ly lz vol
thermo_modify norm no

# Negative deformation

variable delta equal -1e-06*46.3071645153027
variable deltaxy equal -1e-06*xy
variable deltaxz equal -1e-06*xz
variable deltayz equal -1e-06*yz
change_box all yz delta -4.63071645153027e-05 remap units box
Changing box ...
  triclinic box = (0.79691129 -41.347881 -11.349982) to (10.893089 59.973081 34.957182) with tilt (0 0 -4.6307165e-05)

# Relax atoms positions

minimize 0 1e-10 100 1000
Last active /omp style is pair_style tersoff/omp
Step          Temp          PotEng         Press           Pxx            Pyy            Pzz            Pxy            Pxz            Pyz             Lx             Ly             Lz           Volume
16569   0             -613.64371      41.587262      0.97153707     74.209672      49.580577     -0.012069435    0.0011419638  -125.38865      10.096177      101.32096      46.307165      47370.118
Loop time of 0.0574757 on 6 procs for 100 steps with 256 atoms

Minimization stats:
  Stopping criterion = max iterations
  Energy initial, next-to-last, final =
  Force two-norm initial, final = 2.1060649 3.6529641
  Force max component initial, final = 0.25401967 1.6028579
  Final line search alpha, max atom move = 0.0043272502 0.0069359671
  Iterations, force evaluations = 100 375

# Obtain new stress tensor

variable tmp equal pxx
variable pxx1 equal -22.2276260598264
variable tmp equal pyy
variable pyy1 equal -507.089098323269
variable tmp equal pzz
variable pzz1 equal 27.5019331315421
variable tmp equal pxy
variable pxy1 equal -0.00599854862018709
variable tmp equal pxz
variable pxz1 equal 0.000557955827958096
variable tmp equal pyz
variable pyz1 equal -47.8044405613961

# Compute elastic constant from pressure tensor

variable C1neg equal -2320.27309039682
variable C2neg equal -57099.4525035702
variable C3neg equal -1616.21088920467
variable C4neg equal 8544.16873879669
variable C5neg equal 0.0993684941993594
variable C6neg equal 0.235994629366431

# Reset box and simulation parameters

clear
package omp 0
using multi-threaded neighbor list subroutines
box tilt large

The 'box' command has been removed and will be ignored

read_restart restart.equil
Reading restart file ...
  restart file = 7 Feb 2024, LAMMPS = 7 Feb 2024
  restoring atom style atomic from restart
  triclinic box = (0.79691129 -41.347881 -11.349982) to (10.893089 59.973081 34.957182) with tilt (0 0 0)
  pair style tersoff stores no restart info
  256 atoms
  read_restart CPU = 0.000 seconds
include potential.mod
# NOTE: This script can be modified for different pair styles
# See in.elastic for more info.

# Choose potential
pair_style tersoff
pair_coeff * * WB.tersoff W B

# Setup neighbor style
neighbor 1.0 nsq
neigh_modify once no every 1 delay 0 check yes

# Setup minimization style
min_style	     cg
min_modify	     dmax 0.01 line quadratic

# Setup output
thermo		1
thermo_style custom step temp pe press pxx pyy pzz pxy pxz pyz lx ly lz vol
thermo_modify norm no

# Positive deformation

variable delta equal 1e-06*46.3071645153027
variable deltaxy equal 1e-06*xy
variable deltaxz equal 1e-06*xz
variable deltayz equal 1e-06*yz
change_box all yz delta 4.63071645153027e-05 remap units box
Changing box ...
  triclinic box = (0.79691129 -41.347881 -11.349982) to (10.893089 59.973081 34.957182) with tilt (0 0 4.6307165e-05)

# Relax atoms positions

minimize 0 1e-10 100 1000
Last active /omp style is pair_style tersoff/omp
Step          Temp          PotEng         Press           Pxx            Pyy            Pzz            Pxy            Pxz            Pyz             Lx             Ly             Lz           Volume
16569   0             -613.6437      -17.451465      0.97320628    -38.355097     -14.972505     -0.012701993    0.000662928   -210.71312      10.096177      101.32096      46.307165      47370.118
Loop time of 0.047742 on 6 procs for 100 steps with 256 atoms

Minimization stats:
  Stopping criterion = max iterations
  Energy initial, next-to-last, final =
  Force two-norm initial, final = 2.1561681 3.0914567
  Force max component initial, final = 0.27628918 0.73146556
  Final line search alpha, max atom move = 0.0012964695 0.00094832277
  Iterations, force evaluations = 100 312

# Obtain new stress tensor

variable tmp equal pe
variable e1 equal -614.167712874702
variable tmp equal press
variable p1 equal -260.425286119109
variable tmp equal pxx
variable pxx1 equal 56.2249565614056
variable tmp equal pyy
variable pyy1 equal -836.441751213132
variable tmp equal pzz
variable pzz1 equal -1.05906370560049
variable tmp equal pxy
variable pxy1 equal -0.0103471314907094
variable tmp equal pxz
variable pxz1 equal -0.00305444547015355
variable tmp equal pyz
variable pyz1 equal -518.747761516263

# Compute elastic constant from pressure tensor

variable C1pos equal -5524.98517172638
variable C2pos equal 90034.7177925565
variable C3pos equal 4472.31057291893
variable C4pos equal 38550.16335669
variable C5pos equal 0.261871635611805
variable C6pos equal 0.1988636576858

# Combine positive and negative

variable C14 equal 0.5*(-2320.27309039682+-5524.98517172638)
variable C24 equal 0.5*(-57099.4525035702+90034.7177925565)
variable C34 equal 0.5*(-1616.21088920467+4472.31057291893)
variable C44 equal 0.5*(8544.16873879669+38550.16335669)
variable C54 equal 0.5*(0.0993684941993594+0.261871635611805)
variable C64 equal 0.5*(0.235994629366431+0.1988636576858)

# Delete dir to make sure it is not reused

variable dir delete

# uxz Perturbation

variable dir equal 5
include displace.mod
# NOTE: This script should not need to be
# modified. See in.elastic for more info.
#
# Find which reference length to use

variable len0 equal 46.3071645153027

# Reset box and simulation parameters

clear
package omp 0
using multi-threaded neighbor list subroutines
box tilt large

The 'box' command has been removed and will be ignored

read_restart restart.equil
Reading restart file ...
  restart file = 7 Feb 2024, LAMMPS = 7 Feb 2024
  restoring atom style atomic from restart
  triclinic box = (0.79691129 -41.347881 -11.349982) to (10.893089 59.973081 34.957182) with tilt (0 0 0)
  pair style tersoff stores no restart info
  256 atoms
  read_restart CPU = 0.000 seconds
include potential.mod
# NOTE: This script can be modified for different pair styles
# See in.elastic for more info.

# Choose potential
pair_style tersoff
pair_coeff * * WB.tersoff W B

# Setup neighbor style
neighbor 1.0 nsq
neigh_modify once no every 1 delay 0 check yes

# Setup minimization style
min_style	     cg
min_modify	     dmax 0.01 line quadratic

# Setup output
thermo		1
thermo_style custom step temp pe press pxx pyy pzz pxy pxz pyz lx ly lz vol
thermo_modify norm no

# Negative deformation

variable delta equal -1e-06*46.3071645153027
variable deltaxy equal -1e-06*xy
variable deltaxz equal -1e-06*xz
variable deltayz equal -1e-06*yz
change_box all xz delta -4.63071645153027e-05 remap units box
Changing box ...
  triclinic box = (0.79691129 -41.347881 -11.349982) to (10.893089 59.973081 34.957182) with tilt (0 -4.6307165e-05 0)

# Relax atoms positions

minimize 0 1e-10 100 1000
Last active /omp style is pair_style tersoff/omp
Step          Temp          PotEng         Press           Pxx            Pyy            Pzz            Pxy            Pxz            Pyz             Lx             Ly             Lz           Volume
16569   0             -613.64371      12.068082      0.97231175     17.927706      17.304227     -0.020197729    0.0063006315  -168.0506       10.096177      101.32096      46.307165      47370.118
Loop time of 0.0394264 on 6 procs for 100 steps with 256 atoms

Minimization stats:
  Stopping criterion = max iterations
  Energy initial, next-to-last, final =
  Force two-norm initial, final = 2.1254079 2.0669923
  Force max component initial, final = 0.26515428 0.72475265
  Final line search alpha, max atom move = 0.0081028134 0.0058725355
  Iterations, force evaluations = 100 277

# Obtain new stress tensor

variable tmp equal pxx
variable pxx1 equal 32.9255799143313
variable tmp equal pyy
variable pyy1 equal -623.878019884934
variable tmp equal pzz
variable pzz1 equal 84.9340310297568
variable tmp equal pxy
variable pxy1 equal -0.0049202090914001
variable tmp equal pxz
variable pxz1 equal -0.00109019788309051
variable tmp equal pyz
variable pyz1 equal -275.797701858598

# Compute elastic constant from pressure tensor

variable C1neg equal 3195.04750701895
variable C2neg equal -68778.3446597367
variable C3neg equal 4126.9989006168
variable C4neg equal -14255.1573909235
variable C5neg equal -0.0654468769055012
variable C6neg equal 0.34382858224513

# Reset box and simulation parameters

clear
package omp 0
using multi-threaded neighbor list subroutines
box tilt large

The 'box' command has been removed and will be ignored

read_restart restart.equil
Reading restart file ...
  restart file = 7 Feb 2024, LAMMPS = 7 Feb 2024
  restoring atom style atomic from restart
  triclinic box = (0.79691129 -41.347881 -11.349982) to (10.893089 59.973081 34.957182) with tilt (0 0 0)
  pair style tersoff stores no restart info
  256 atoms
  read_restart CPU = 0.000 seconds
include potential.mod
# NOTE: This script can be modified for different pair styles
# See in.elastic for more info.

# Choose potential
pair_style tersoff
pair_coeff * * WB.tersoff W B

# Setup neighbor style
neighbor 1.0 nsq
neigh_modify once no every 1 delay 0 check yes

# Setup minimization style
min_style	     cg
min_modify	     dmax 0.01 line quadratic

# Setup output
thermo		1
thermo_style custom step temp pe press pxx pyy pzz pxy pxz pyz lx ly lz vol
thermo_modify norm no

# Positive deformation

variable delta equal 1e-06*46.3071645153027
variable deltaxy equal 1e-06*xy
variable deltaxz equal 1e-06*xz
variable deltayz equal 1e-06*yz
change_box all xz delta 4.63071645153027e-05 remap units box
Changing box ...
  triclinic box = (0.79691129 -41.347881 -11.349982) to (10.893089 59.973081 34.957182) with tilt (0 4.6307165e-05 0)

# Relax atoms positions

minimize 0 1e-10 100 1000
Last active /omp style is pair_style tersoff/omp
Step          Temp          PotEng         Press           Pxx            Pyy            Pzz            Pxy            Pxz            Pyz             Lx             Ly             Lz           Volume
16569   0             -613.64371      12.06775       0.97231187     17.927074      17.303865     -0.004573699   -0.0044957401  -168.05108      10.096177      101.32096      46.307165      47370.118
Loop time of 0.0479256 on 6 procs for 100 steps with 256 atoms

Minimization stats:
  Stopping criterion = max iterations
  Energy initial, next-to-last, final =
  Force two-norm initial, final = 2.1254085 3.6290031
  Force max component initial, final = 0.26515454 0.77823402
  Final line search alpha, max atom move = 0.012809633 0.0099688919
  Iterations, force evaluations = 100 335

# Obtain new stress tensor

variable tmp equal pe
variable e1 equal -614.192538315407
variable tmp equal press
variable p1 equal -384.981149089518
variable tmp equal pxx
variable pxx1 equal 88.2551811257543
variable tmp equal pyy
variable pyy1 equal -1106.84006320198
variable tmp equal pzz
variable pzz1 equal -136.358565192332
variable tmp equal pxy
variable pxy1 equal -0.0137521231776451
variable tmp equal pxz
variable pxz1 equal -0.00623225648986638
variable tmp equal pyz
variable pyz1 equal -864.179573028924

# Compute elastic constant from pressure tensor

variable C1pos equal -8728.00762816125
variable C2pos equal 117074.548991441
variable C3pos equal 18002.2607215921
variable C4pos equal 73093.3445079561
variable C5pos equal 0.579652737583088
variable C6pos equal 0.53936282637937

# Combine positive and negative

variable C15 equal 0.5*(3195.04750701895+-8728.00762816125)
variable C25 equal 0.5*(-68778.3446597367+117074.548991441)
variable C35 equal 0.5*(4126.9989006168+18002.2607215921)
variable C45 equal 0.5*(-14255.1573909235+73093.3445079561)
variable C55 equal 0.5*(-0.0654468769055012+0.579652737583088)
variable C65 equal 0.5*(0.34382858224513+0.53936282637937)

# Delete dir to make sure it is not reused

variable dir delete

# uxy Perturbation

variable dir equal 6
include displace.mod
# NOTE: This script should not need to be
# modified. See in.elastic for more info.
#
# Find which reference length to use

variable len0 equal 101.320962220795

# Reset box and simulation parameters

clear
package omp 0
using multi-threaded neighbor list subroutines
box tilt large

The 'box' command has been removed and will be ignored

read_restart restart.equil
Reading restart file ...
  restart file = 7 Feb 2024, LAMMPS = 7 Feb 2024
  restoring atom style atomic from restart
  triclinic box = (0.79691129 -41.347881 -11.349982) to (10.893089 59.973081 34.957182) with tilt (0 0 0)
  pair style tersoff stores no restart info
  256 atoms
  read_restart CPU = 0.000 seconds
include potential.mod
# NOTE: This script can be modified for different pair styles
# See in.elastic for more info.

# Choose potential
pair_style tersoff
pair_coeff * * WB.tersoff W B

# Setup neighbor style
neighbor 1.0 nsq
neigh_modify once no every 1 delay 0 check yes

# Setup minimization style
min_style	     cg
min_modify	     dmax 0.01 line quadratic

# Setup output
thermo		1
thermo_style custom step temp pe press pxx pyy pzz pxy pxz pyz lx ly lz vol
thermo_modify norm no

# Negative deformation

variable delta equal -1e-06*101.320962220795
variable deltaxy equal -1e-06*xy
variable deltaxz equal -1e-06*xz
variable deltayz equal -1e-06*yz
change_box all xy delta -0.000101320962220795 remap units box
Changing box ...
  triclinic box = (0.79691129 -41.347881 -11.349982) to (10.893089 59.973081 34.957182) with tilt (-0.00010132096 0 0)

# Relax atoms positions

minimize 0 1e-10 100 1000
Last active /omp style is pair_style tersoff/omp
Step          Temp          PotEng         Press           Pxx            Pyy            Pzz            Pxy            Pxz            Pyz             Lx             Ly             Lz           Volume
16569   0             -613.64371      12.068127      0.97231204     17.927793      17.304276      0.0013828616  -0.0069095695  -168.05054      10.096177      101.32096      46.307165      47370.118
Loop time of 0.0463169 on 6 procs for 100 steps with 256 atoms

Minimization stats:
  Stopping criterion = max iterations
  Energy initial, next-to-last, final =
  Force two-norm initial, final = 2.1254078 1.9776509
  Force max component initial, final = 0.26515424 0.73104722
  Final line search alpha, max atom move = 0.0071299554 0.0052123341
  Iterations, force evaluations = 100 329

# Obtain new stress tensor

variable tmp equal pxx
variable pxx1 equal 29.6918551240437
variable tmp equal pyy
variable pyy1 equal -620.856557497429
variable tmp equal pzz
variable pzz1 equal 77.3535767096963
variable tmp equal pxy
variable pxy1 equal -0.00604815658777963
variable tmp equal pxz
variable pxz1 equal -0.000874861882576495
variable tmp equal pyz
variable pyz1 equal -264.30746516115

# Compute elastic constant from pressure tensor

variable C1neg equal 2871.67502799019
variable C2neg equal -68476.1984209862
variable C3neg equal 3368.95346861075
variable C4neg equal -13106.1337211787
variable C5neg equal -0.0439132768540997
variable C6neg equal 0.231033832607177

# Reset box and simulation parameters

clear
package omp 0
using multi-threaded neighbor list subroutines
box tilt large

The 'box' command has been removed and will be ignored

read_restart restart.equil
Reading restart file ...
  restart file = 7 Feb 2024, LAMMPS = 7 Feb 2024
  restoring atom style atomic from restart
  triclinic box = (0.79691129 -41.347881 -11.349982) to (10.893089 59.973081 34.957182) with tilt (0 0 0)
  pair style tersoff stores no restart info
  256 atoms
  read_restart CPU = 0.000 seconds
include potential.mod
# NOTE: This script can be modified for different pair styles
# See in.elastic for more info.

# Choose potential
pair_style tersoff
pair_coeff * * WB.tersoff W B

# Setup neighbor style
neighbor 1.0 nsq
neigh_modify once no every 1 delay 0 check yes

# Setup minimization style
min_style	     cg
min_modify	     dmax 0.01 line quadratic

# Setup output
thermo		1
thermo_style custom step temp pe press pxx pyy pzz pxy pxz pyz lx ly lz vol
thermo_modify norm no

# Positive deformation

variable delta equal 1e-06*101.320962220795
variable deltaxy equal 1e-06*xy
variable deltaxz equal 1e-06*xz
variable deltayz equal 1e-06*yz
change_box all xy delta 0.000101320962220795 remap units box
Changing box ...
  triclinic box = (0.79691129 -41.347881 -11.349982) to (10.893089 59.973081 34.957182) with tilt (0.00010132096 0 0)

# Relax atoms positions

minimize 0 1e-10 100 1000
Last active /omp style is pair_style tersoff/omp
Step          Temp          PotEng         Press           Pxx            Pyy            Pzz            Pxy            Pxz            Pyz             Lx             Ly             Lz           Volume
16569   0             -613.64371      12.067688      0.97231146     17.926955      17.303797     -0.02615429     0.0087144607  -168.05117      10.096177      101.32096      46.307165      47370.118
Loop time of 0.0491117 on 6 procs for 100 steps with 256 atoms

Minimization stats:
  Stopping criterion = max iterations
  Energy initial, next-to-last, final =
  Force two-norm initial, final = 2.1254087 4.637262
  Force max component initial, final = 0.26515459 0.83656595
  Final line search alpha, max atom move = 0.0057536346 0.0048132948
  Iterations, force evaluations = 100 340

# Obtain new stress tensor

variable tmp equal pe
variable e1 equal -614.279207285708
variable tmp equal press
variable p1 equal 282.111104653507
variable tmp equal pxx
variable pxx1 equal 23.6983235834082
variable tmp equal pyy
variable pyy1 equal 230.574775517793
variable tmp equal pzz
variable pzz1 equal 592.060214859319
variable tmp equal pxy
variable pxy1 equal -0.00630592180579631
variable tmp equal pxz
variable pxz1 equal 0.000733043440166344
variable tmp equal pyz
variable pyz1 equal 424.947741391425

# Compute elastic constant from pressure tensor

variable C1pos equal -2272.32187392664
variable C2pos equal -16666.934880536
variable C3pos equal -54839.617283573
variable C4pos equal -55819.3869340788
variable C5pos equal -0.116877255420184
variable C6pos equal -0.205257310805509

# Combine positive and negative

variable C16 equal 0.5*(2871.67502799019+-2272.32187392664)
variable C26 equal 0.5*(-68476.1984209862+-16666.934880536)
variable C36 equal 0.5*(3368.95346861075+-54839.617283573)
variable C46 equal 0.5*(-13106.1337211787+-55819.3869340788)
variable C56 equal 0.5*(-0.0439132768540997+-0.116877255420184)
variable C66 equal 0.5*(0.231033832607177+-0.205257310805509)

# Delete dir to make sure it is not reused

variable dir delete

# Output final values

variable C11all equal -912.193230416945
variable C22all equal -61767.2799909192
variable C33all equal -6616.62371569874

variable C12all equal 0.5*(1246.38673520301+12008.3906408886)
variable C13all equal 0.5*(-4515.39964760989+6941.3512205339)
variable C23all equal 0.5*(-1176.0465645284+-37828.136102004)

variable C44all equal 23547.1660477433
variable C55all equal 0.257102930338793
variable C66all equal 0.012888260900834

variable C14all equal 0.5*(-3922.6291310616+14011.8988232705)
variable C15all equal 0.5*(-2766.48006057115+-0.00700520882137799)
variable C16all equal 0.5*(299.676577031775+0.019002979876597)

variable C24all equal 0.5*(16467.6326444932+-54982.2863091474)
variable C25all equal 0.5*(24148.1021658521+-0.114050192849217)
variable C26all equal 0.5*(-42571.5666507611+-0.176881956197775)

variable C34all equal 0.5*(1428.04984185713+16695.2155005052)
variable C35all equal 0.5*(11064.6298111045+0.250108724619727)
variable C36all equal 0.5*(-25735.3319074811+0.406774503296824)

variable C45all equal 0.5*(29419.0935585163+0.180620064905582)
variable C46all equal 0.5*(-34462.7603276287+0.217429143526116)
variable C56all equal 0.5*(-0.0803952661371418+0.44159570431225)

C11: -912.193230416945
C12: 1246.38673520301
C44: 23547.1660477433
